<?xml version="1.0" encoding="UTF-8"?>

<!-- generated on 2024-10-17 17:17:50 by Eclipse SUMO netconvert Version 1.11.0
<configuration xmlns:xsi="http://www.w3.org/2001/XMLSchema-instance" xsi:noNamespaceSchemaLocation="http://sumo.dlr.de/xsd/netconvertConfiguration.xsd">

    <input>
        <type-files value="C:\Users\mubas\Documents\SumoMap\Sumo\data\typemap\osmNetconvert.typ.xml"/>
        <osm-files value="cologneMap2k2kv10.osm.xml"/>
    </input>

    <output>
        <output-file value="cologneMap2k2kv10.net.xml"/>
    </output>

    <projection>
        <proj.utm value="true"/>
    </projection>

    <processing>
        <geometry.remove value="true"/>
        <roundabouts.guess value="true"/>
    </processing>

    <tls_building>
        <tls.discard-simple value="true"/>
        <tls.join value="true"/>
        <tls.guess-signals value="true"/>
    </tls_building>

    <ramp_guessing>
        <ramps.guess value="true"/>
    </ramp_guessing>

    <edge_removal>
        <remove-edges.by-vclass value="rail,rail_electric,bicycle,pedestrian"/>
        <remove-edges.by-type value="rail,rail_urban,rail_electric,railway.tram,railway.subway"/>
    </edge_removal>

    <junctions>
        <no-internal-links value="true"/>
        <junctions.join value="true"/>
    </junctions>

    <report>
        <aggregate-warnings value="5"/>
    </report>

</configuration>
-->

<net version="1.9" junctionCornerDetail="5" limitTurnSpeed="5.50" xmlns:xsi="http://www.w3.org/2001/XMLSchema-instance" xsi:noNamespaceSchemaLocation="http://sumo.dlr.de/xsd/net_file.xsd">

    <location netOffset="-354647.27,-5642422.97" convBoundary="0.00,0.00,3033.60,3188.84" origBoundary="6.915405,50.901288,6.974660,50.945077" projParameter="+proj=utm +zone=32 +ellps=WGS84 +datum=WGS84 +units=m +no_defs"/>

    <type id="highway.bridleway" priority="1" numLanes="1" speed="2.78" allow="pedestrian" oneway="1" width="2.00"/>
    <type id="highway.bus_guideway" priority="1" numLanes="1" speed="27.78" allow="bus" oneway="1"/>
    <type id="highway.cycleway" priority="1" numLanes="1" speed="8.33" allow="bicycle" oneway="0" width="1.00"/>
    <type id="highway.footway" priority="1" numLanes="1" speed="2.78" allow="pedestrian" oneway="1" width="2.00"/>
    <type id="highway.ford" priority="1" numLanes="1" speed="2.78" allow="army" oneway="0"/>
    <type id="highway.living_street" priority="2" numLanes="1" speed="2.78" disallow="tram rail_urban rail rail_electric rail_fast ship" oneway="0"/>
    <type id="highway.motorway" priority="14" numLanes="2" speed="39.44" allow="private emergency authority army vip passenger hov taxi bus coach delivery truck trailer motorcycle evehicle custom1 custom2" oneway="1"/>
    <type id="highway.motorway_link" priority="9" numLanes="1" speed="22.22" allow="private emergency authority army vip passenger hov taxi bus coach delivery truck trailer motorcycle evehicle custom1 custom2" oneway="1"/>
    <type id="highway.path" priority="1" numLanes="1" speed="2.78" allow="pedestrian bicycle" oneway="0" width="2.00"/>
    <type id="highway.pedestrian" priority="1" numLanes="1" speed="2.78" allow="pedestrian" oneway="1" width="2.00"/>
    <type id="highway.primary" priority="12" numLanes="2" speed="27.78" disallow="tram rail_urban rail rail_electric rail_fast ship" oneway="0"/>
    <type id="highway.primary_link" priority="7" numLanes="1" speed="22.22" disallow="tram rail_urban rail rail_electric rail_fast ship" oneway="0"/>
    <type id="highway.raceway" priority="15" numLanes="2" speed="83.33" allow="vip" oneway="0"/>
    <type id="highway.residential" priority="3" numLanes="1" speed="13.89" disallow="tram rail_urban rail rail_electric rail_fast ship" oneway="0"/>
    <type id="highway.secondary" priority="11" numLanes="1" speed="27.78" disallow="tram rail_urban rail rail_electric rail_fast ship" oneway="0"/>
    <type id="highway.secondary_link" priority="6" numLanes="1" speed="22.22" disallow="tram rail_urban rail rail_electric rail_fast ship" oneway="0"/>
    <type id="highway.service" priority="1" numLanes="1" speed="5.56" allow="pedestrian delivery bicycle" oneway="0"/>
    <type id="highway.stairs" priority="1" numLanes="1" speed="1.39" allow="pedestrian" oneway="1" width="2.00"/>
    <type id="highway.step" priority="1" numLanes="1" speed="1.39" allow="pedestrian" oneway="1" width="2.00"/>
    <type id="highway.steps" priority="1" numLanes="1" speed="1.39" allow="pedestrian" oneway="1" width="2.00"/>
    <type id="highway.tertiary" priority="10" numLanes="1" speed="22.22" disallow="tram rail_urban rail rail_electric rail_fast ship" oneway="0"/>
    <type id="highway.tertiary_link" priority="5" numLanes="1" speed="22.22" disallow="tram rail_urban rail rail_electric rail_fast ship" oneway="0"/>
    <type id="highway.track" priority="1" numLanes="1" speed="5.56" allow="pedestrian motorcycle moped bicycle" oneway="0"/>
    <type id="highway.trunk" priority="13" numLanes="2" speed="27.78" disallow="pedestrian bicycle tram rail_urban rail rail_electric rail_fast ship" oneway="0"/>
    <type id="highway.trunk_link" priority="8" numLanes="1" speed="22.22" disallow="pedestrian bicycle tram rail_urban rail rail_electric rail_fast ship" oneway="0"/>
    <type id="highway.unclassified" priority="4" numLanes="1" speed="13.89" disallow="tram rail_urban rail rail_electric rail_fast ship" oneway="0"/>
    <type id="highway.unsurfaced" priority="1" numLanes="1" speed="8.33" disallow="tram rail_urban rail rail_electric rail_fast ship" oneway="0"/>
    <type id="railway.highspeed" priority="21" numLanes="1" speed="69.44" allow="rail_fast" oneway="1"/>
    <type id="railway.light_rail" priority="19" numLanes="1" speed="27.78" allow="rail_urban" oneway="1"/>
    <type id="railway.preserved" priority="16" numLanes="1" speed="27.78" allow="rail" oneway="1"/>
    <type id="railway.rail" priority="20" numLanes="1" speed="44.44" allow="rail" oneway="1"/>
    <type id="railway.subway" priority="18" numLanes="1" speed="27.78" allow="rail_urban" oneway="1"/>
    <type id="railway.tram" priority="17" numLanes="1" speed="13.89" allow="tram" oneway="1"/>

    <edge id="-1010641521#1" from="257886287" to="4142980732" priority="3" type="highway.residential" shape="1959.69,1519.88 1920.69,1512.44 1888.05,1507.36 1882.15,1506.44 1871.25,1504.74 1838.37,1500.34 1827.33,1497.18 1819.83,1495.39 1811.28,1493.15 1806.16,1490.32">
        <lane id="-1010641521#1_0" index="0" disallow="tram rail_urban rail rail_electric rail_fast ship" speed="13.89" length="156.74" shape="1959.39,1521.45 1920.42,1514.02 1887.80,1508.94 1881.90,1508.02 1871.02,1506.33 1838.05,1501.91 1826.93,1498.73 1819.45,1496.95 1813.33,1495.34"/>
    </edge>
    <edge id="-1016257783#2" from="10216160124" to="1634119673" priority="1" type="highway.service" shape="290.92,1319.37 289.55,1326.27 280.28,1347.86 271.87,1366.51 275.06,1380.90 288.08,1387.74 296.15,1390.86 304.47,1401.98 277.49,1421.60 274.84,1423.99">
        <lane id="-1016257783#2_0" index="0" allow="pedestrian delivery bicycle" speed="5.56" length="139.89" shape="291.68,1323.77 291.09,1326.74 281.74,1348.50 273.55,1366.68 276.47,1379.83 288.75,1386.28 297.15,1389.53 306.72,1402.32 279.18,1422.35"/>
    </edge>
    <edge id="-1016257783#3" from="11191026324" to="10216160124" priority="1" type="highway.service" shape="292.58,1306.14 289.23,1306.55 286.73,1308.25 285.13,1311.37 285.47,1315.23 287.63,1318.06 290.92,1319.37">
        <lane id="-1016257783#3_0" index="0" allow="pedestrian delivery bicycle" speed="5.56" length="20.81" shape="291.76,1307.85 289.81,1308.09 287.97,1309.35 286.76,1311.69 287.02,1314.63 287.99,1315.90"/>
    </edge>
    <edge id="-1016257783#4" from="10216160124" to="11191026324" priority="1" type="highway.service" shape="290.92,1319.37 295.15,1318.44 297.43,1316.14 298.35,1313.11 298.11,1310.93 296.76,1308.41 292.58,1306.14">
        <lane id="-1016257783#4_0" index="0" allow="pedestrian delivery bicycle" speed="5.56" length="20.54" shape="294.06,1317.05 294.35,1316.98 296.01,1315.30 296.72,1312.96 296.55,1311.41 295.57,1309.58 292.71,1308.03"/>
    </edge>
    <edge id="-102003405" from="1177523742" to="1177523747" priority="1" type="highway.service">
        <lane id="-102003405_0" index="0" allow="pedestrian delivery bicycle" speed="5.56" length="37.09" shape="96.72,824.70 111.61,852.82"/>
    </edge>
    <edge id="-102003410" from="1177523749" to="1177414796" priority="1" type="highway.service" shape="85.95,822.82 87.64,821.36 139.50,784.38 147.34,778.79">
        <lane id="-102003410_0" index="0" allow="pedestrian delivery bicycle" speed="5.56" length="75.54" shape="88.78,818.58 138.57,783.07 141.23,781.18"/>
    </edge>
    <edge id="-1020497837" from="25630648" to="961949602" priority="3" type="highway.residential" shape="1364.64,2611.61 1364.83,2619.94 1365.11,2632.81">
        <lane id="-1020497837_0" index="0" disallow="tram rail_urban rail rail_electric rail_fast ship" speed="13.89" length="21.21" shape="1366.32,2615.08 1366.43,2619.90 1366.64,2629.47"/>
    </edge>
    <edge id="-10212091#0" from="cluster_10717867238_7012826575" to="cluster_3735277343_443847_660638860" priority="3" type="highway.residential" shape="1371.74,1614.71 1407.86,1654.59">
        <lane id="-10212091#0_0" index="0" disallow="tram rail_urban rail rail_electric rail_fast ship" speed="8.33" length="70.27" shape="1375.93,1616.95 1409.05,1653.51"/>
    </edge>
    <edge id="-10212091#2" from="273218060" to="cluster_10717867238_7012826575" priority="3" type="highway.residential" shape="1321.63,1559.77 1337.30,1576.69 1365.89,1608.25">
        <lane id="-10212091#2_0" index="0" disallow="tram rail_urban rail rail_electric rail_fast ship" speed="8.33" length="70.00" shape="1326.48,1562.65 1338.48,1575.61 1363.90,1603.67"/>
    </edge>
    <edge id="-10212091#3" from="84497500" to="273218060" priority="3" type="highway.residential">
        <lane id="-10212091#3_0" index="0" disallow="tram rail_urban rail rail_electric rail_fast ship" speed="8.33" length="30.50" shape="1305.52,1540.72 1318.81,1554.53"/>
    </edge>
    <edge id="-10212091#4" from="cluster_213284374_6957345535" to="84497500" priority="3" type="highway.residential" shape="1278.05,1512.99 1300.48,1537.80">
        <lane id="-10212091#4_0" index="0" disallow="tram rail_urban rail rail_electric rail_fast ship" speed="8.33" length="37.70" shape="1282.40,1515.41 1297.98,1532.64"/>
    </edge>
    <edge id="-10212384#1" from="592157821" to="84503732" priority="1" type="highway.service" shape="1164.11,1506.19 1187.18,1491.48 1198.94,1484.44">
        <lane id="-10212384#1_0" index="0" allow="pedestrian delivery bicycle" speed="5.56" length="41.07" shape="1168.89,1501.25 1186.34,1490.12 1198.12,1483.06"/>
    </edge>
    <edge id="-10212385#3" from="84503733" to="592168297" priority="1" type="highway.service" shape="1125.33,1516.19 1125.06,1509.53 1111.58,1485.54 1107.52,1479.36 1105.03,1468.93 1107.35,1465.17 1132.73,1435.61 1137.66,1429.87 1153.26,1419.79">
        <lane id="-10212385#3_0" index="0" allow="pedestrian delivery bicycle" speed="5.56" length="121.82" shape="1123.49,1510.48 1123.47,1509.97 1110.21,1486.37 1106.03,1480.00 1103.32,1468.66 1106.06,1464.23 1131.51,1434.57 1136.59,1428.65 1152.39,1418.44"/>
    </edge>
    <edge id="-1034736568" from="9531733999" to="25630546" priority="1" type="highway.service" shape="521.63,2591.32 525.24,2625.10 531.17,2624.48 547.54,2621.90 548.91,2621.69 554.36,2620.92 557.44,2627.50">
        <lane id="-1034736568_0" index="0" allow="pedestrian delivery bicycle" speed="5.56" length="70.65" shape="523.22,2591.15 526.66,2623.34 530.96,2622.90 547.29,2620.32 548.68,2620.10 555.31,2619.17 557.85,2624.60"/>
    </edge>
    <edge id="-1039460421" from="1497203293" to="1497203255" priority="1" type="highway.service" shape="1241.32,1950.01 1242.25,1934.27 1245.29,1929.81 1247.62,1926.84">
        <lane id="-1039460421_0" index="0" allow="pedestrian delivery bicycle" speed="5.56" length="24.93" shape="1239.72,1949.91 1240.68,1933.73 1243.12,1930.15"/>
    </edge>
    <edge id="-1040627970" from="592116469" to="84503733" priority="1" type="highway.service" shape="1049.34,1517.75 1059.66,1513.54 1073.17,1514.38 1125.33,1516.19">
        <lane id="-1040627970_0" index="0" allow="pedestrian delivery bicycle" speed="5.56" length="76.87" shape="1053.25,1514.43 1059.39,1511.92 1073.25,1512.79 1120.43,1514.42"/>
    </edge>
    <edge id="-1041751791" from="9590483403" to="9590483405" priority="1" type="highway.service" shape="1095.86,2492.75 1094.75,2476.39 1094.64,2474.86 1111.97,2471.42">
        <lane id="-1041751791_0" index="0" allow="pedestrian delivery bicycle" speed="5.56" length="35.60" shape="1093.88,2487.32 1093.15,2476.50 1092.95,2473.57 1106.96,2470.78"/>
    </edge>
    <edge id="-1041751793#0" from="9590483405" to="664112574" priority="1" type="highway.service">
        <lane id="-1041751793#0_0" index="0" allow="pedestrian delivery bicycle" speed="5.56" length="10.76" shape="1110.19,2467.25 1109.92,2460.74"/>
    </edge>
    <edge id="-1044303170" from="549912669" to="549912716" priority="1" type="highway.service" shape="1404.38,2086.77 1404.75,2113.44 1408.09,2116.43 1410.09,2118.23 1417.96,2117.93 1449.78,2117.88 1462.62,2117.45">
        <lane id="-1044303170_0" index="0" allow="pedestrian delivery bicycle" speed="5.56" length="86.39" shape="1405.98,2086.75 1406.34,2112.72 1409.15,2115.24 1410.67,2116.60 1417.93,2116.33 1449.75,2116.28 1457.99,2116.00"/>
    </edge>
    <edge id="-1046916993" from="9627146053" to="9627146055" priority="1" type="highway.service" shape="2105.30,1871.70 2111.31,1872.70 2108.29,1896.28 2107.98,1900.77">
        <lane id="-1046916993_0" index="0" allow="pedestrian delivery bicycle" speed="5.56" length="34.36" shape="2105.56,1870.12 2113.09,1871.38 2109.88,1896.43 2109.80,1897.58"/>
    </edge>
    <edge id="-1049201852" from="248109294" to="253230293" priority="3" type="highway.residential">
        <lane id="-1049201852_0" index="0" disallow="tram rail_urban rail rail_electric rail_fast ship" speed="8.33" length="42.10" shape="1736.22,805.61 1759.32,788.30"/>
    </edge>
    <edge id="-105425059" from="1214320190" to="1214320261" priority="1" type="highway.service" shape="217.34,1231.25 223.07,1217.75 227.98,1207.89 231.61,1199.58">
        <lane id="-105425059_0" index="0" allow="pedestrian delivery bicycle" speed="5.56" length="34.75" shape="215.86,1230.62 221.62,1217.08 226.53,1207.21 230.15,1198.94"/>
    </edge>
    <edge id="-105425068" from="1214320250" to="1214320200" priority="1" type="highway.service" shape="153.26,1437.06 175.88,1447.40 180.79,1449.64">
        <lane id="-105425068_0" index="0" allow="pedestrian delivery bicycle" speed="5.56" length="30.27" shape="153.93,1435.61 176.55,1445.95 177.14,1446.22"/>
    </edge>
    <edge id="-1054278018" from="1879164993" to="1879165105" priority="1" type="highway.service" shape="1046.29,2657.03 1052.35,2664.33 1048.30,2667.39 1034.24,2678.02 1027.99,2682.04">
        <lane id="-1054278018_0" index="0" allow="pedestrian delivery bicycle" speed="5.56" length="39.63" shape="1047.52,2656.01 1054.66,2664.59 1049.26,2668.66 1035.15,2679.33 1031.77,2681.51"/>
    </edge>
    <edge id="-108372346" from="444326402" to="cluster_1243664300_664112572" priority="1" type="highway.service" shape="1107.40,2494.15 1106.10,2489.55">
        <lane id="-108372346_0" index="0" allow="pedestrian delivery bicycle" speed="5.56" length="7.14" shape="1105.23,2492.38 1105.18,2492.19"/>
    </edge>
    <edge id="-1090327474" from="9986907567" to="9986907568" priority="1" type="highway.service">
        <lane id="-1090327474_0" index="0" allow="pedestrian delivery bicycle" speed="5.56" length="10.69" shape="1802.62,797.00 1806.79,796.40"/>
    </edge>
    <edge id="-1090331464" from="9986961813" to="9986961814" priority="1" type="highway.service">
        <lane id="-1090331464_0" index="0" allow="pedestrian delivery bicycle" speed="5.56" length="40.90" shape="1247.26,1013.10 1217.81,1033.96"/>
    </edge>
    <edge id="-1090331468" from="9986968528" to="9986968527" priority="1" type="highway.service">
        <lane id="-1090331468_0" index="0" allow="pedestrian delivery bicycle" speed="5.56" length="26.67" shape="1277.73,995.12 1295.42,982.09"/>
    </edge>
    <edge id="-1090333047" from="9986952282" to="6302057810" priority="1" type="highway.service" shape="1739.74,1409.25 1739.22,1400.71 1745.48,1396.05">
        <lane id="-1090333047_0" index="0" allow="pedestrian delivery bicycle" speed="5.56" length="16.36" shape="1738.14,1409.35 1737.57,1399.94 1740.63,1397.67"/>
    </edge>
    <edge id="-1090333049" from="9986952287" to="9986952295" priority="1" type="highway.service" shape="1893.86,1294.48 1869.22,1291.67 1867.04,1292.72 1865.67,1294.31 1864.64,1299.98 1865.13,1302.32 1866.92,1303.87 1870.29,1305.00 1892.51,1308.30">
        <lane id="-1090333049_0" index="0" allow="pedestrian delivery bicycle" speed="5.56" length="65.86" shape="1890.54,1295.71 1869.50,1293.31 1868.03,1294.01 1867.16,1295.02 1866.27,1299.96 1866.59,1301.46 1867.73,1302.45 1870.67,1303.44 1889.52,1306.24"/>
    </edge>
    <edge id="-1090335174" from="9986975185" to="cluster_592310094_9986975183" priority="1" type="highway.service" shape="1217.26,1509.30 1231.48,1498.51 1249.89,1481.57">
        <lane id="-1090335174_0" index="0" allow="pedestrian delivery bicycle" speed="5.56" length="43.15" shape="1216.29,1508.02 1230.45,1497.28 1241.59,1487.03"/>
    </edge>
    <edge id="-1090345721#1" from="9987087115" to="9987087116" priority="1" type="highway.service" shape="783.32,1860.21 776.29,1867.95 774.92,1869.46">
        <lane id="-1090345721#1_0" index="0" allow="pedestrian delivery bicycle" speed="5.56" length="12.49" shape="784.50,1861.29 779.36,1866.95"/>
    </edge>
    <edge id="-1090345722#1" from="9987088017" to="9987088018" priority="1" type="highway.service" shape="769.40,1846.12 761.14,1855.38 759.81,1856.87">
        <lane id="-1090345722#1_0" index="0" allow="pedestrian delivery bicycle" speed="5.56" length="14.40" shape="770.59,1847.19 764.20,1854.35"/>
    </edge>
    <edge id="-1090345723#1" from="9987088019" to="9987088020" priority="1" type="highway.service" shape="756.37,1832.33 746.60,1843.31 745.30,1844.77">
        <lane id="-1090345723#1_0" index="0" allow="pedestrian delivery bicycle" speed="5.56" length="16.65" shape="757.56,1833.40 749.69,1842.24"/>
    </edge>
    <edge id="-1090345724" from="9987088023" to="9987088021" priority="1" type="highway.service" shape="738.22,1824.14 743.84,1817.49 736.69,1811.22 730.33,1805.64">
        <lane id="-1090345724_0" index="0" allow="pedestrian delivery bicycle" speed="5.56" length="26.67" shape="737.00,1823.10 741.60,1817.66 735.63,1812.42 732.73,1809.88"/>
    </edge>
    <edge id="-1090598832" from="9989188805" to="9989188803" priority="1" type="highway.service" shape="1635.36,2462.95 1641.35,2493.59 1642.18,2496.41 1646.16,2509.96 1648.50,2517.94">
        <lane id="-1090598832_0" index="0" allow="pedestrian delivery bicycle" speed="5.56" length="56.59" shape="1636.93,2462.65 1642.91,2493.21 1643.72,2495.96 1647.69,2509.51 1649.05,2514.13"/>
    </edge>
    <edge id="-1090603229" from="9989237607" to="cluster_380510879_9989237606" priority="1" type="highway.service" shape="1514.73,2583.75 1492.70,2587.28">
        <lane id="-1090603229_0" index="0" allow="pedestrian delivery bicycle" speed="5.56" length="22.99" shape="1514.98,2585.33 1496.61,2588.27"/>
    </edge>
    <edge id="-109063044#1" from="cluster_1249671689_4081681852" to="1352598" priority="3" type="highway.residential" shape="1238.09,2213.60 1237.45,2206.56 1234.71,2169.27 1233.77,2163.07">
        <lane id="-109063044#1_0" index="0" disallow="tram rail_urban rail rail_electric rail_fast ship" speed="8.33" length="58.91" shape="1236.17,2210.12 1235.86,2206.69 1233.12,2169.45 1232.97,2168.51"/>
    </edge>
    <edge id="-1091932753" from="10000373473" to="10000373472" priority="1" type="highway.service">
        <lane id="-1091932753_0" index="0" allow="pedestrian delivery bicycle" speed="5.56" length="16.40" shape="1307.69,2266.81 1320.91,2265.91"/>
    </edge>
    <edge id="-1091935018" from="10000438484" to="10000438487" priority="1" type="highway.service">
        <lane id="-1091935018_0" index="0" allow="pedestrian delivery bicycle" speed="5.56" length="13.42" shape="920.76,2472.05 921.23,2480.83"/>
    </edge>
    <edge id="-1091935019#0" from="10000438487" to="10000438488" priority="1" type="highway.service">
        <lane id="-1091935019#0_0" index="0" allow="pedestrian delivery bicycle" speed="5.56" length="16.10" shape="915.39,2487.48 908.72,2487.99"/>
    </edge>
    <edge id="-1091935019#1" from="10000438485" to="10000438487" priority="1" type="highway.service" shape="948.32,2486.24 923.49,2486.83 919.88,2485.54">
        <lane id="-1091935019#1_0" index="0" allow="pedestrian delivery bicycle" speed="5.56" length="28.66" shape="948.35,2487.84 923.23,2488.43 922.75,2488.26"/>
    </edge>
    <edge id="-1091935020#0" from="10000438488" to="10000438490" priority="1" type="highway.service" shape="903.83,2486.75 904.02,2490.36 904.30,2496.34">
        <lane id="-1091935020#0_0" index="0" allow="pedestrian delivery bicycle" speed="5.56" length="9.60" shape="905.66,2491.29 905.75,2493.09"/>
    </edge>
    <edge id="-1091935020#1" from="10000438489" to="10000438488" priority="1" type="highway.service">
        <lane id="-1091935020#1_0" index="0" allow="pedestrian delivery bicycle" speed="5.56" length="16.81" shape="904.57,2469.88 905.18,2481.90"/>
    </edge>
    <edge id="-1092220575" from="10003073081" to="10003073083" priority="1" type="highway.service" shape="152.18,1470.06 148.58,1479.22 163.28,1486.59">
        <lane id="-1092220575_0" index="0" allow="pedestrian delivery bicycle" speed="5.56" length="26.29" shape="153.67,1470.65 150.60,1478.45 159.73,1483.02"/>
    </edge>
    <edge id="-110927132#0" from="1265004329" to="1265004382" priority="1" type="highway.service">
        <lane id="-110927132#0_0" index="0" allow="pedestrian delivery bicycle" speed="5.56" length="21.41" shape="1053.93,2569.94 1037.30,2569.21"/>
    </edge>
    <edge id="-110927132#1" from="1265004320" to="1265004329" priority="1" type="highway.service">
        <lane id="-110927132#1_0" index="0" allow="pedestrian delivery bicycle" speed="5.56" length="6.80" shape="1065.41,2570.67 1063.16,2570.50"/>
    </edge>
    <edge id="-110927134" from="1265004335" to="1265004353" priority="1" type="highway.service" shape="1064.86,2544.84 1062.26,2528.33 1051.15,2531.56">
        <lane id="-110927134_0" index="0" allow="pedestrian delivery bicycle" speed="5.56" length="28.28" shape="1063.28,2545.08 1060.96,2530.37 1056.16,2531.77"/>
    </edge>
    <edge id="-1117031166" from="10216188620" to="10216188621" priority="1" type="highway.service">
        <lane id="-1117031166_0" index="0" allow="pedestrian delivery bicycle" speed="5.56" length="46.83" shape="75.99,1134.34 35.37,1111.02"/>
    </edge>
    <edge id="-1123347548" from="10273378634" to="cluster_10273378636_4382943057" priority="1" type="highway.service" shape="1985.04,1917.27 1976.45,1915.77 1960.18,1915.93 1953.37,1915.98">
        <lane id="-1123347548_0" index="0" allow="pedestrian delivery bicycle" speed="5.56" length="33.26" shape="1984.76,1918.84 1976.32,1917.37 1960.20,1917.53 1956.60,1917.56"/>
    </edge>
    <edge id="-1123352879" from="10273468849" to="10273468852" priority="1" type="highway.service" shape="1978.40,1849.59 1977.32,1854.81 1972.42,1867.04 1971.06,1871.72">
        <lane id="-1123352879_0" index="0" allow="pedestrian delivery bicycle" speed="5.56" length="23.37" shape="1979.96,1849.92 1978.86,1855.27 1973.94,1867.56 1973.55,1868.91"/>
    </edge>
    <edge id="-1123445830" from="10274259096" to="10274259100" priority="1" type="highway.service" shape="2021.53,1835.33 2016.76,1859.39 2014.53,1867.27 2011.20,1880.68 2009.40,1885.37">
        <lane id="-1123445830_0" index="0" allow="pedestrian delivery bicycle" speed="5.56" length="51.56" shape="2023.10,1835.64 2018.32,1859.77 2016.08,1867.68 2012.73,1881.16 2012.09,1882.84"/>
    </edge>
    <edge id="-1123445831" from="10274259101" to="10274259104" priority="1" type="highway.service" shape="2036.84,1862.32 2036.82,1873.88 2032.29,1887.18 2030.91,1891.98">
        <lane id="-1123445831_0" index="0" allow="pedestrian delivery bicycle" speed="5.56" length="30.61" shape="2038.44,1862.32 2038.42,1874.15 2033.82,1887.66 2033.32,1889.39"/>
    </edge>
    <edge id="-1124775542" from="cluster_10285716079_416432885_426576111" to="10285716083" priority="1" type="highway.service" shape="2142.67,2071.29 2143.50,2077.22 2143.78,2089.23 2143.05,2093.52 2131.35,2096.61">
        <lane id="-1124775542_0" index="0" allow="pedestrian delivery bicycle" speed="5.56" length="34.70" shape="2144.85,2075.38 2145.09,2077.09 2145.38,2089.35 2144.45,2094.80 2131.76,2098.16"/>
    </edge>
    <edge id="-1126557494" from="10301239065" to="10301239068" priority="1" type="highway.service" shape="2088.08,1974.37 2087.60,1983.74 2085.54,1998.84 2084.51,2006.92">
        <lane id="-1126557494_0" index="0" allow="pedestrian delivery bicycle" speed="5.56" length="32.76" shape="2089.68,1974.45 2089.19,1983.89 2087.12,1999.05 2086.69,2002.40"/>
    </edge>
    <edge id="-1126557498" from="10301239070" to="cluster_10301239073_426576107_443291468" priority="1" type="highway.service" shape="2139.35,1984.86 2141.38,1993.30 2140.95,2005.58 2141.00,2013.46">
        <lane id="-1126557498_0" index="0" allow="pedestrian delivery bicycle" speed="5.56" length="28.85" shape="2140.91,1984.49 2142.99,1993.14 2142.55,2005.60 2142.57,2008.88"/>
    </edge>
    <edge id="-1152280071" from="10717867234" to="cluster_10717867238_7012826575" priority="1" type="highway.service" shape="1471.27,1550.81 1452.78,1530.36 1439.99,1541.48 1431.34,1547.52 1365.89,1608.25">
        <lane id="-1152280071_0" index="0" allow="pedestrian delivery bicycle" speed="5.56" length="146.09" shape="1470.08,1551.89 1452.64,1532.60 1440.97,1542.74 1432.35,1548.77 1370.45,1606.20"/>
    </edge>
    <edge id="-1161501753" from="10802929285" to="10802929287" priority="1" type="highway.service" shape="882.01,1530.58 896.19,1506.16 910.63,1502.26">
        <lane id="-1161501753_0" index="0" allow="pedestrian delivery bicycle" speed="5.56" length="43.19" shape="880.63,1529.78 895.14,1504.79 905.67,1501.95"/>
    </edge>
    <edge id="-1164874769#0" from="10834048790" to="10834048788" priority="1" type="highway.service" shape="471.53,922.86 482.00,911.18 512.24,936.70">
        <lane id="-1164874769#0_0" index="0" allow="pedestrian delivery bicycle" speed="5.56" length="55.25" shape="472.53,919.34 481.84,908.96 509.66,932.43"/>
    </edge>
    <edge id="-1164874769#1" from="10834048788" to="10834048790" priority="1" type="highway.service" shape="512.24,936.70 501.96,948.68 471.53,922.86">
        <lane id="-1164874769#1_0" index="0" allow="pedestrian delivery bicycle" speed="5.56" length="55.70" shape="510.37,941.33 502.14,950.93 473.00,926.21"/>
    </edge>
    <edge id="-1187351657" from="11025963959" to="11025963960" priority="1" type="highway.service">
        <lane id="-1187351657_0" index="0" allow="pedestrian delivery bicycle" speed="5.56" length="40.14" shape="2143.99,1724.95 2141.02,1761.72"/>
    </edge>
    <edge id="-1188278006#2" from="cluster_313566_368880" to="84497446" priority="10" type="highway.tertiary" shape="1101.43,1636.43 1097.99,1628.43 1096.45,1625.13 1093.92,1619.82 1080.44,1588.28">
        <lane id="-1188278006#2_0" index="0" disallow="tram rail_urban rail rail_electric rail_fast ship" speed="13.89" length="63.91" shape="1095.36,1626.59 1095.00,1625.82 1092.46,1620.48 1080.54,1592.59"/>
    </edge>
    <edge id="-1190643165" from="11055200611" to="11055200614" priority="1" type="highway.service" shape="1296.75,975.98 1305.57,969.75 1280.00,934.59 1271.01,941.09">
        <lane id="-1190643165_0" index="0" allow="pedestrian delivery bicycle" speed="5.56" length="65.37" shape="1299.72,971.92 1303.33,969.38 1279.64,936.82 1275.78,939.61"/>
    </edge>
    <edge id="-1190643169" from="11055200632" to="11055200629" priority="1" type="highway.service" shape="1159.59,1073.73 1172.94,1089.45 1184.20,1099.71 1187.74,1104.30">
        <lane id="-1190643169_0" index="0" allow="pedestrian delivery bicycle" speed="5.56" length="41.66" shape="1160.81,1072.69 1174.09,1088.33 1185.38,1098.62 1187.06,1100.80"/>
    </edge>
    <edge id="-1192642134" from="11071112638" to="cluster_11071112641_11071112645" priority="1" type="highway.service" shape="180.34,2302.87 207.02,2298.16 220.66,2297.33 227.82,2296.66">
        <lane id="-1192642134_0" index="0" allow="pedestrian delivery bicycle" speed="5.56" length="48.51" shape="180.06,2301.29 206.83,2296.57 220.54,2295.74 224.52,2295.37"/>
    </edge>
    <edge id="-1192642136" from="11071112642" to="cluster_11071112641_11071112645" priority="1" type="highway.service" shape="190.89,2295.75 206.80,2294.60 220.45,2293.76 227.63,2292.96">
        <lane id="-1192642136_0" index="0" allow="pedestrian delivery bicycle" speed="5.56" length="37.23" shape="190.77,2294.16 206.70,2293.01 220.31,2292.16 224.18,2291.73"/>
    </edge>
    <edge id="-1195354943" from="11094269423" to="11094269429" priority="1" type="highway.service" shape="1052.62,1105.46 1053.42,1104.79 1054.32,1103.14 1054.98,1100.64 1054.75,1098.50 1053.44,1094.72 1040.77,1074.93">