<?xml version="1.0"?>

<routes> <!-- The opening tag -->

   <!-- Vehicle types -->
   <vType id="passenger" length="5.0" width="2.0" maxSpeed="170.0" accel="2.6" decel="4.5" sigma="0.5"/>

   <!-- Routes + associated vehicles & flows -->
   <route id="trip-0" color="Magenta" edges="-32029471 32029471 48826945#0 32213071#0 540101366 31951737#0 31951737#2 32902927 179639808#0 179639808#1 636113045 23014984 22949994#0 22949994#1"/>
   <vehicle id="vehicle-0" type="passenger" color="Yellow" depart="0.0" route="trip-0"/>

   <route id="trip-1" color="Magenta" edges="-30095780#1 -30095780#0 30095780#0 30095780#1 63566383 202654192#0 154755109#1 219188460#0 219188460#2 219188460#4 219188460#5"/>
   <vehicle id="vehicle-1" type="passenger" color="Yellow" depart="0.01" route="trip-1"/>

   <route id="trip-2" color="Magenta" edges="219018758#0 32011636#0 51857159 219098056 -219098056 219098057#0 32011635#0 53265906#0 53265906#2 31694310 -26811074#3 -26811074#2 -26811074#1 -26811074#0 154755094#0 51534019#0 8225127 8225124#0 8225124#1 8225124#2 8142293#0 8142293#2 8142293#3 8142293#4"/>
   <vehicle id="vehicle-2" type="passenger" color="Yellow" depart="0.02" route="trip-2"/>

   <route id="trip-3" color="Magenta" edges="4045160#3 37333602#0 37333602#4 383178036#0 383178036#1 383178034 150594021#0 150594021#3 4045164#0 4045164#5 115106778#0 115106778#2 115106778#3 26784170#0 26784170#3 667410641#0 154502579#0 667410645 667410646#0 667410646#1 27115018#0 198171539#0 1317567180 169465734#1 169465735#1 501456678 169453887#0 4400324#0 169453889#0-AddedOnRampEdge 169453889#0 203971501#0 727302499 1135417454#0 1135417454#2 4400318 23568083 1075393377 100132117 30743982 44037603#0 44037603#1 32233474#0 32233474#3 142518656#1 23914009#2 23914009#3 4537892#0 23912128 -23912128"/>
   <vehicle id="vehicle-3" type="passenger" color="Yellow" depart="0.03" route="trip-3"/>

   <route id="trip-4" color="Magenta" edges="-23014989 364957117 23013528#0 48012544#0 48012544#2 48012544#3 877599645 203322740#0 -154511600#2 -154511600#0 88235135#0 995953631 32007885#2 32008097#0 479545489#0 479545489#1 169455026 187070212#0 37873571#0 37873571#1 37873571#2 187070213#0 4400324#0 169453889#0-AddedOnRampEdge 169453889#0 203971501#0 727302499 1135417454#0 1135417454#2 4400318 48591635#0 23568429 48591634#0 48591634#1 50557487#0 50557487#1 188052918#1 154755085#0 4400311#0 145033134#1 199239574#1 32108791#0 32108791#2 23493260#4 23493260#5 1065802294 303244426"/>
   <vehicle id="vehicle-4" type="passenger" color="Yellow" depart="0.04" route="trip-4"/>

   <route id="trip-5" color="Magenta" edges="-50061433 50061433 -22873531#1 200671461 533123612#0 136413965#0 667410648 169453890#0 402179132 37873574 175589820 315921077#0 315921077#1 -315921078#3 -315921078#0 -219188460#7 -219188460#5 -219188460#4 -219188460#3 -219188460#1 -154755109#1 -154755109#0 -63566383 36695921#0 36695921#1 36695921#3 36695920#2 142387043#1 142387043#2 1302644973#1 37791102#0"/>
   <vehicle id="vehicle-5" type="passenger" color="Yellow" depart="0.05" route="trip-5"/>

   <route id="trip-6" color="Magenta" edges="154755100#1 -154755073#1 -154755073#0 -1196295672#3 -1196295672#2 4941746#0 4401673#4 4401673#5 1272512390#0 1272512390#2 1272512390#3 612188894#0 1228473203#0 -144935692#1 -144935692#0 -541566701 -28523803#2 -541566703#2 -32064261 -32064260#8 -32064260#3 -219098056 219098057#0 32011636#0 51857159 219098056"/>
   <vehicle id="vehicle-6" type="passenger" color="Yellow" depart="0.06" route="trip-6"/>

   <route id="trip-7" color="Magenta" edges="23798319#0 -298326251 37331985#5 1302279721 150031197#3 150031197#4 173282740 -37637984 8195774#0 25101965#0 25101965#2 857811043 25101966 34999321#2 24693845#0 24693845#1 154502572#5 -10212091#4 23015813#0 329890956 667410646#1 27115018#0 198171539#0 1317567180 169465734#1 169465735#1 501456678 169453887#0 4400324#0 169453889#0-AddedOnRampEdge 169453889#0 203971501#0 727302499 1135417454#0 1135417454#2 4400318 23568083 1075393377 100132117 30743982 44037603#0 44037603#1 32233474#0 32233474#3 142518656#1 23914009#2 23914009#3 4537892#0 4537892#1 4537892#2 37276374#0 37276374#1 37276374#2 23493807#0 1063103289 133872755 23694447 130752274#0 4537865#0"/>
   <vehicle id="vehicle-7" type="passenger" color="Yellow" depart="0.07" route="trip-7"/>

   <route id="trip-8" color="Magenta" edges="9872533#1 22598774 32011876#0 32011876#1 23013527#0 23013527#1 -154511600#2 -154511600#0 88235135#0 995953631 32007885#2 32008097#0 479545489#0 479545489#1 169455026 187070212#0 37873571#0 37873571#1 37873571#2 187070213#0 402179132 37873574 175589820 315921077#0 315921077#1 154755110#0 86415848 175589819#0 175589819#1 175589819#2 154333001#1 169453888#0 145345137#0 1065802292 667410647 1317567192#0 1317567192#1 150039007#1 667410644#0 -1188278006#2 -8196629#8 -8196629#7 -8196629#6 -8196629#4 8196629#4 8196629#5"/>
   <vehicle id="vehicle-8" type="passenger" color="Yellow" depart="0.08" route="trip-8"/>

   <route id="trip-9" color="Magenta" edges="541566703#0 -541566703#2 -32064261 -32064260#8 -32064260#3 -219098056 219098057#0 206080341#0 206080341#3 -37347656 4045160#0 4045160#2 4045160#3 42999417#0 42999417#3 42999417#6 28841605#0 32635135#0 -340443758#3 -340443758#2 -23328072#3 -23328072#2 -23328072#1 -23328072#0"/>
   <vehicle id="vehicle-9" type="passenger" color="Yellow" depart="0.09" route="trip-9"/>

</routes> <!-- The closing tag -->
