<?xml version="1.0" encoding="UTF-8"?>

<!-- generated on 2024-10-01 16:20:20 by Eclipse SUMO polyconvert Version 1.11.0
<configuration xmlns:xsi="http://www.w3.org/2001/XMLSchema-instance" xsi:noNamespaceSchemaLocation="http://sumo.dlr.de/xsd/polyconvertConfiguration.xsd">

    <input>
        <net-file value="cologneMap2k2kv300.net.xml"/>
        <osm-files value="cologneMap2k2kv300.osm.xml"/>
    </input>

    <output>
        <output-file value="cologneMap2k2kv300.poly.xml"/>
    </output>

    <processing>
        <poi-layer-offset value="5"/>
    </processing>

</configuration>
-->

<additional xmlns:xsi="http://www.w3.org/2001/XMLSchema-instance" xsi:noNamespaceSchemaLocation="http://sumo.dlr.de/xsd/additional_file.xsd">
    <location netOffset="-354647.27,-5642422.97" convBoundary="-27977.92,-43130.85,5048.35,3495.66" origBoundary="6.554390,50.520002,7.015601,50.946658" projParameter="+proj=utm +zone=32 +ellps=WGS84 +datum=WGS84 +units=m +no_defs"/>

    <poly id="100036387" type="building" color="255,230,230" fill="1" layer="-1.00" shape="1548.025522,1628.358557 1542.654186,1620.540386 1541.811273,1619.306380 1540.631872,1617.603233 1541.459948,1617.035020 1552.336141,1609.600669 1554.307415,1612.472478 1570.252331,1635.664673 1572.546015,1639.006021 1574.480284,1641.812099 1562.693283,1649.872547 1557.461354,1642.261916 1553.643524,1636.704002 1551.328130,1633.341010 1549.975291,1634.257599 1546.589905,1629.333080 1548.025522,1628.358557"/>
    <poly id="100036387#1" type="tourism" color="207,245,201" fill="1" layer="-2.00" shape="1548.025522,1628.358557 1542.654186,1620.540386 1541.811273,1619.306380 1540.631872,1617.603233 1541.459948,1617.035020 1552.336141,1609.600669 1554.307415,1612.472478 1570.252331,1635.664673 1572.546015,1639.006021 1574.480284,1641.812099 1562.693283,1649.872547 1557.461354,1642.261916 1553.643524,1636.704002 1551.328130,1633.341010 1549.975291,1634.257599 1546.589905,1629.333080 1548.025522,1628.358557"/>
    <poly id="100036390" type="building" color="255,230,230" fill="1" layer="-1.00" shape="1072.613032,1686.979868 1076.536587,1685.201553 1076.789724,1685.706368 1080.699228,1683.928448 1080.298444,1683.171812 1085.450844,1680.825189 1088.825502,1679.284708 1086.594517,1674.417362 1085.977202,1674.723855 1081.479777,1664.979025 1082.126437,1664.716224 1079.976445,1659.980155 1074.670990,1662.386680 1071.309758,1663.904541 1070.971282,1663.112789 1067.136889,1664.810734 1067.482083,1665.591170 1063.669083,1667.299649 1066.585311,1673.794768 1067.209032,1673.465840 1070.133517,1680.005240 1069.627080,1680.253011 1071.224308,1683.824958 1072.613032,1686.979868"/>
    <poly id="100043241" type="building" color="255,230,230" fill="1" layer="-1.00" shape="1773.097392,2649.183910 1773.076389,2646.903386 1773.058648,2645.501832 1773.053598,2644.812076 1785.415526,2644.636489 1785.954461,2649.117006 1773.097392,2649.183910"/>
    <poly id="100234167" type="residential" color="235,235,227" fill="1" layer="-3.00" shape="1570.963726,1144.317190 1583.654353,1162.458892 1598.375950,1182.580609 1624.061882,1219.723646 1629.395064,1229.200939 1668.725062,1284.415061 1689.447114,1315.030690 1698.181432,1326.961955 1721.328254,1357.032033 1725.282250,1362.174584 1725.648428,1368.284468 1746.541319,1395.190167 1750.431361,1395.994851 1783.662991,1399.191541 1787.682774,1402.396161 1786.573450,1412.363579 1783.893642,1437.229463 1788.185154,1438.312366 1809.617636,1442.314456 1820.758623,1441.115797 1825.767046,1440.153709 1839.359433,1440.122353 1860.207141,1441.292245 1867.781230,1435.463311 1871.176471,1432.620892 1884.277834,1332.769017 1887.270471,1328.335422 1890.716905,1288.203994 1892.643720,1227.462343 1907.757750,1231.572953 2067.124569,1264.030679 2106.077783,1257.691029 2219.913553,1281.196770 2259.137405,1209.500337 2267.296747,1193.507801 2278.553575,1169.473804 2249.214755,1154.983537 2219.820076,1144.589807 2180.279221,1134.776852 2137.712043,1123.868296 2140.840131,1094.283471 2143.755255,1090.085856 2140.194190,1089.739128 2128.236286,1088.634029 2123.229095,1088.126971 2117.757487,1087.610494 2110.201191,1086.984709 2110.221660,1014.923868 2116.143712,1015.450151 2116.432508,1009.611478 2138.337833,1013.368255 2138.261562,1014.171526 2146.926786,1014.967018 2147.915794,1003.923697 2149.348169,990.854094 2155.484279,992.509493 2251.693730,1018.539311 2315.099342,1033.525088 2345.164634,1039.661392 2351.618968,1029.146148 2359.442697,1011.927919 2375.250575,991.718839 2383.374771,977.485599 2394.702494,958.535107 2402.842422,937.981191 2410.299865,921.240498 2420.314293,888.317075 2427.778429,862.373998 2434.312064,837.880870 2442.335072,806.436687 2442.298289,797.446887 2436.952956,793.610662 2418.831500,785.542188 2380.825893,768.485954 2317.997606,739.095777 2232.787987,699.219023 2225.798139,702.572098 2230.825915,754.264114 2233.178139,802.791951 2223.554165,825.111840 2218.019071,829.693286 2211.789350,833.314715 2204.683073,834.990824 2195.275463,834.827719 2186.354334,832.670545 2177.488497,830.478477 2170.734764,827.093117 2164.913378,822.324492 2160.365899,818.099311 2155.659128,813.199768 2151.621197,806.034049 2147.175181,793.260330 2152.156303,779.825671 2162.563876,762.457892 2188.295527,717.282809 2200.824565,695.227604 2197.244962,688.104833 2155.256318,677.135495 2134.926777,672.422625 2111.548223,667.070787 2094.201476,664.423241 2080.768582,659.353137 2064.050378,655.019232 2038.947903,649.136733 1998.283395,639.534076 1975.307533,634.004796 1970.605467,633.611828 1965.060134,637.314770 1959.471456,641.230336 1957.852232,651.601237 1956.782109,658.429603 1955.975709,663.603838 1955.425387,667.101898 1955.234318,668.331184 1954.995899,669.628543 1953.979241,676.355286 1953.635539,678.423339 1953.317796,680.412784 1951.499629,692.235738 1950.922215,696.279786 1950.268066,700.092282 1950.132256,701.030731 1949.602456,704.761898 1949.018806,708.071717 1948.057377,714.251698 1946.952557,725.164744 1945.005200,724.940419 1940.771750,725.213286 1933.218245,726.234496 1915.671013,722.947713 1907.858457,720.960629 1898.025651,721.199270 1892.200078,714.005300 1883.073582,702.151311 1882.729595,700.903444 1910.886468,681.942461 1913.876290,662.898847 1918.036542,637.602704 1918.498203,633.951309 1912.279822,624.509340 1907.678359,622.923025 1887.481097,635.465880 1861.857560,654.991133 1817.460383,687.398593 1771.676978,720.523611 1757.014922,732.791338 1753.725521,733.883891 1746.809832,749.553507 1740.828375,755.783553 1716.164751,776.406854 1706.207786,785.361991 1626.958540,843.205817 1576.767079,881.117223 1526.807157,919.490076 1514.170116,929.165341 1502.484476,938.402532 1499.498702,940.799857 1506.217466,950.516783 1516.004892,964.121046 1517.164579,977.530699 1507.661788,991.169392 1534.084254,1057.345089 1548.997501,1102.108421 1562.182883,1130.729433 1570.963726,1144.317190"/>
    <poly id="100270809" type="school" color="237,199,199" fill="1" layer="-2.00" shape="1323.734397,1130.259973 1324.828640,1131.676131 1325.251664,1132.220748 1329.219967,1137.351497 1371.620696,1197.396527 1383.634062,1216.958624 1404.071196,1259.275962 1433.606873,1249.620846 1459.582844,1234.089315 1490.403801,1211.947361 1506.556810,1195.698332 1536.821972,1156.547266 1522.899716,1132.041616 1500.513367,1086.873688 1496.809671,1082.403113 1491.750965,1079.283165 1486.932962,1073.686272 1483.640461,1066.800790 1483.842322,1057.348074 1482.426628,1051.189427 1467.858777,1025.233011 1354.325029,1107.923323 1350.802954,1110.502547 1323.734397,1130.259973"/>
    <poly id="1004156695" type="parking" color="184,184,179" fill="1" layer="-1.00" shape="1315.993741,2287.866428 1321.658215,2287.519839 1320.951367,2276.000386 1315.286881,2276.346976 1315.993741,2287.866428"/>
    <poly id="1004156696" type="parking" color="184,184,179" fill="1" layer="-1.00" shape="1437.218364,2287.914879 1403.668189,2288.501680 1403.704476,2290.314435 1437.254639,2289.727634 1437.218364,2287.914879"/>
    <poly id="1004156697" type="parking" color="184,184,179" fill="1" layer="-1.00" shape="1372.284932,2288.883843 1372.296138,2290.552638 1390.333605,2290.396517 1390.315071,2288.716798 1372.284932,2288.883843"/>
    <poly id="1004156698" type="parking" color="184,184,179" fill="1" layer="-1.00" shape="1326.598391,2289.952975 1331.663826,2289.556280 1344.431263,2289.012336 1350.889639,2288.643719 1370.832390,2288.735031 1370.922193,2290.702082 1351.621487,2290.437147 1344.630398,2290.865075 1331.791164,2291.355377 1326.839995,2291.815661 1326.598391,2289.952975"/>
    <poly id="100674900" type="building" color="255,230,230" fill="1" layer="-1.00" shape="410.301123,1166.910070 408.210515,1164.075379 409.134446,1163.415284 406.175456,1159.202813 415.032944,1152.779453 419.933408,1159.775156 410.301123,1166.910070"/>
    <poly id="100674904" type="building" color="255,230,230" fill="1" layer="-1.00" shape="407.037484,1201.607687 404.485647,1198.374177 403.784925,1197.459062 411.100333,1191.724198 414.352890,1195.872827 407.037484,1201.607687"/>
    <poly id="100767926" type="building" color="255,230,230" fill="1" layer="-1.00" shape="443.010146,1211.440239 438.612780,1205.331778 447.317990,1198.745816 451.673188,1204.855462 443.010146,1211.440239"/>
    <poly id="100767928" type="building" color="255,230,230" fill="1" layer="-1.00" shape="386.844770,1131.869013 384.128650,1128.295154 380.492268,1123.500754 382.592997,1121.917553 385.761195,1119.525583 389.521619,1116.683087 395.874114,1125.051357 386.844770,1131.869013"/>
    <poly id="100767929" type="building" color="255,230,230" fill="1" layer="-1.00" shape="402.806771,1154.423169 402.022838,1153.298959 401.112649,1153.947544 400.396181,1153.978702 397.646565,1149.960676 397.799864,1149.155213 398.681943,1148.507414 397.906901,1147.449720 398.264235,1147.150416 406.572055,1140.686773 411.692373,1147.999018 402.806771,1154.423169"/>
    <poly id="100767930" type="building" color="255,230,230" fill="1" layer="-1.00" shape="379.329913,1161.911845 372.460276,1153.157468 386.692735,1142.277433 389.927056,1146.526706 394.982162,1142.702179 398.264235,1147.150416 397.906901,1147.449720 379.329913,1161.911845"/>
    <poly id="100767931" type="building" color="255,230,230" fill="1" layer="-1.00" shape="402.806771,1154.423169 411.692373,1147.999018 415.032944,1152.779453 406.175456,1159.202813 402.806771,1154.423169"/>
    <poly id="100989821" type="building" color="255,230,230" fill="1" layer="-1.00" shape="1006.501309,2436.938460 1003.072561,2437.022834 1002.901149,2432.888209 1002.697218,2427.586111 1007.565272,2427.428265 1007.562981,2423.811919 1011.694599,2423.719098 1011.426742,2426.219100 1010.183055,2437.859636 1006.501309,2436.938460"/>
    <poly id="100989826" type="parking" color="184,184,179" fill="1" layer="-1.00" shape="1011.187232,2422.920928 1011.597945,2408.888944 1008.127954,2409.007845 1008.308012,2423.045631 1011.187232,2422.920928"/>
    <poly id="100989827" type="building" color="255,230,230" fill="1" layer="-1.00" shape="1003.789556,2479.676513 1002.170284,2480.355879 1002.190301,2476.783420 1000.432703,2476.787867 1000.444846,2474.194840 1001.189233,2474.162978 1009.511069,2474.064715 1009.509601,2475.021714 1009.505568,2479.673087 1003.789556,2479.676513"/>
    <poly id="100989830" type="building" color="255,230,230" fill="1" layer="-1.00" shape="1003.303674,2451.125963 1003.134803,2448.849546 1002.327803,2448.905406 1002.165045,2445.838772 1001.735561,2445.817353 1001.302757,2437.094385 1003.072561,2437.022834 1006.501309,2436.938460 1010.183055,2437.859636 1009.462977,2440.783947 1009.320070,2441.711503 1009.417603,2445.970588 1009.526073,2450.874758 1003.303674,2451.125963"/>
    <poly id="100989831" type="building" color="255,230,230" fill="1" layer="-1.00" shape="1001.189233,2474.162978 1001.217041,2473.394412 1000.569462,2473.367940 1000.484520,2469.308798 1002.522209,2469.263167 1002.617354,2469.649977 1009.513555,2469.357748 1009.507928,2471.427604 1009.511069,2474.064715 1001.189233,2474.162978"/>
    <poly id="100992270" type="building" color="255,230,230" fill="0" layer="-1.00" shape="1001.226144,2501.991626 998.179711,2501.664769 996.874436,2501.500835 997.011697,2498.603882 1000.665006,2498.758050 1000.585625,2500.451628 1001.796472,2500.506920 1002.053232,2494.579981 1003.745737,2494.510583 1009.498930,2494.328082 1009.490402,2496.798606 1009.489828,2499.302291 1009.484707,2501.895122 1003.279110,2501.990079 1001.311378,2502.022634"/>
    <poly id="100992271" type="building" color="255,230,230" fill="1" layer="-1.00" shape="1000.757148,2489.697764 1000.745981,2485.258234 1009.501827,2485.092244 1009.473903,2486.361547 1009.394794,2489.579574 1003.688605,2489.682874 1000.757148,2489.697764"/>
    <poly id="100992275" type="building" color="255,230,230" fill="1" layer="-1.00" shape="1009.498930,2494.328082 1003.745737,2494.510583 1003.688605,2489.682874 1009.394794,2489.579574 1009.493769,2489.599073 1009.495071,2491.412805 1009.498930,2494.328082"/>
    <poly id="100992277" type="building" color="255,230,230" fill="1" layer="-1.00" shape="994.420930,2485.356528 994.344512,2483.622779 994.737007,2483.578463 994.722284,2481.030694 995.383294,2481.034536 1001.656596,2480.592736 1002.170284,2480.355879 1003.789556,2479.676513 1009.505568,2479.673087 1009.508223,2481.030558 1009.501827,2485.092244 1000.745981,2485.258234 994.420930,2485.356528"/>
    <poly id="101010765" type="building" color="255,230,230" fill="1" layer="-1.00" shape="1003.755557,2537.773717 1003.856665,2534.588458 1004.000561,2530.667598 1010.808138,2530.477982 1010.977447,2531.508117 1011.233113,2533.114471 1011.903321,2537.235204 1009.725461,2537.295864 1009.702625,2537.485666 1003.755557,2537.773717"/>
    <poly id="101010765#1" type="historic" color="128,255,128" fill="1" layer="-1.00" shape="1003.755557,2537.773717 1003.856665,2534.588458 1004.000561,2530.667598 1010.808138,2530.477982 1010.977447,2531.508117 1011.233113,2533.114471 1011.903321,2537.235204 1009.725461,2537.295864 1009.702625,2537.485666 1003.755557,2537.773717"/>
    <poly id="101010766" type="building" color="255,230,230" fill="1" layer="-1.00" shape="1002.066011,2530.376534 1002.084527,2529.274404 1002.227102,2524.296476 1009.863566,2524.584505 1010.407956,2527.974332 1010.723329,2529.957356 1002.066011,2530.376534"/>
    <poly id="101010766#1" type="historic" color="128,255,128" fill="1" layer="-1.00" shape="1002.066011,2530.376534 1002.084527,2529.274404 1002.227102,2524.296476 1009.863566,2524.584505 1010.407956,2527.974332 1010.723329,2529.957356 1002.066011,2530.376534"/>
    <poly id="101010767" type="building" color="255,230,230" fill="1" layer="-1.00" shape="1009.480573,2511.086486 1001.726092,2511.358115 999.892156,2511.398071 999.755721,2509.276534 1001.939689,2509.182318 1001.846745,2507.360010 1009.479322,2507.002758 1009.480573,2511.086486"/>
    <poly id="101010768" type="building" color="255,230,230" fill="1" layer="-1.00" shape="1001.919594,2516.538102 1001.829241,2514.304008 1001.726092,2511.358115 1009.480573,2511.086486 1009.474248,2512.121512 1009.466289,2516.884269 1001.919594,2516.538102"/>
    <poly id="101010770" type="building" color="255,230,230" fill="1" layer="-1.00" shape="1001.229448,2521.798341 1001.333229,2519.213889 1001.455300,2516.528780 1001.919594,2516.538102 1009.466289,2516.884269 1009.466123,2519.655001 1009.464002,2522.103092 1002.130554,2521.840005 1001.229448,2521.798341"/>
    <poly id="101010771" type="building" color="255,230,230" fill="1" layer="-1.00" shape="1007.963351,2541.428708 1005.308389,2541.524914 1001.887974,2541.653570 1002.475021,2540.769279 1001.691961,2537.897962 1003.755557,2537.773717 1009.702625,2537.485666 1009.725461,2537.295864 1011.903321,2537.235204 1011.965603,2537.956752 1012.045652,2538.811333 1007.985406,2539.191482 1007.963351,2541.428708"/>
    <poly id="101010773" type="building" color="255,230,230" fill="1" layer="-1.00" shape="1001.298454,2507.364155 1001.197767,2505.263878 1003.339893,2505.181955 1003.279110,2501.990079 1009.484707,2501.895122 1009.486302,2504.476639 1009.479322,2507.002758 1001.846745,2507.360010 1001.298454,2507.364155"/>
    <poly id="1010574575" type="building" color="255,230,230" fill="1" layer="-1.00" shape="2141.827890,2459.096555 2141.751001,2459.621663 2141.217999,2463.486440 2143.826624,2463.748172 2147.055637,2464.070653 2147.645378,2459.714708 2144.620100,2459.386596 2141.827890,2459.096555"/>
    <poly id="101084176" type="building" color="255,230,230" fill="1" layer="-1.00" shape="348.577485,1243.189992 348.847871,1242.548165 345.700831,1241.167361 350.064763,1231.242014 350.581471,1230.103689 354.732404,1231.923772 354.243181,1233.039073 360.565373,1235.799906 361.062245,1234.706647 364.892596,1236.379919 364.431480,1237.494433 360.124056,1247.429314 357.077267,1246.112465 356.800164,1246.765608 353.724955,1245.438428 353.995964,1244.818838 352.144656,1244.002674 351.866620,1244.622461 348.577485,1243.189992"/>
    <poly id="101084180" type="building" color="255,230,230" fill="1" layer="-1.00" shape="396.926606,1264.816124 397.230578,1264.117723 390.984496,1261.310209 395.325669,1251.574706 397.776571,1252.707944 398.480098,1251.208322 407.720471,1255.467718 407.227755,1256.961445 409.406337,1257.913135 409.962109,1256.662450 412.973119,1257.958074 412.360631,1259.444021 414.758915,1260.456336 413.127666,1264.240765 410.527662,1270.099729 404.872615,1267.553862 404.569575,1268.285619 402.097912,1267.164086 402.301639,1266.401723 400.606498,1265.636814 400.274417,1266.336001 396.926606,1264.816124"/>
    <poly id="101084184" type="building" color="255,230,230" fill="1" layer="-1.00" shape="504.129037,1213.638015 512.418628,1221.373667 507.512066,1225.983978 500.469568,1216.065893 504.129037,1213.638015"/>
    <poly id="101084188" type="building" color="255,230,230" fill="1" layer="-1.00" shape="498.368275,1213.097939 486.905990,1221.185165 496.883629,1235.472200 508.456155,1227.304023 507.512066,1225.983978 500.469568,1216.065893 498.368275,1213.097939"/>
    <poly id="101084193" type="building" color="255,230,230" fill="1" layer="-1.00" shape="468.816896,1137.845344 459.853235,1130.406777 465.063438,1123.573577 475.394835,1132.643050 468.816896,1137.845344"/>
    <poly id="101084199" type="building" color="255,230,230" fill="1" layer="-1.00" shape="476.734257,1146.348015 475.536992,1147.293922 468.816896,1137.845344 475.394835,1132.643050 483.202862,1141.260060 476.734257,1146.348015"/>
    <poly id="101084202" type="building" color="255,230,230" fill="1" layer="-1.00" shape="483.822185,1155.118677 476.734257,1146.348015 483.202862,1141.260060 489.986868,1150.228389 483.822185,1155.118677"/>
    <poly id="101084217" type="building" color="255,230,230" fill="1" layer="-1.00" shape="383.214087,1257.810915 382.829709,1258.400291 380.009044,1257.121615 380.187459,1256.460106 376.618997,1254.846265 376.862210,1254.238581 380.842431,1244.924875 381.549561,1243.302747 385.858178,1245.229720 385.190410,1246.750598 391.983818,1249.765351 392.723102,1248.286984 396.032492,1249.941462 395.325669,1251.574706 390.984496,1261.310209 388.349338,1260.126490 388.043501,1260.758179 385.037958,1259.406778 385.229806,1258.722639 383.214087,1257.810915"/>
    <poly id="101084221" type="building" color="255,230,230" fill="1" layer="-1.00" shape="504.129037,1213.638015 511.778054,1204.989714 519.595391,1212.938865 512.418628,1221.373667 504.129037,1213.638015"/>
    <poly id="101084229" type="building" color="255,230,230" fill="1" layer="-1.00" shape="331.875693,1235.923570 332.141849,1235.382007 326.374911,1232.861607 329.678230,1225.247039 330.749759,1222.824662 332.921032,1223.765398 333.443521,1222.582400 342.485872,1226.546782 341.977436,1227.729387 344.569526,1228.880906 345.099044,1227.697712 347.968302,1228.952756 347.465959,1230.101807 350.064763,1231.242014 345.700831,1241.167361 339.855364,1238.604633 339.531250,1239.336984 336.618588,1238.038649 337.035484,1237.103409 335.433541,1236.402678 335.016335,1237.326799 331.875693,1235.923570"/>
    <poly id="101084241" type="building" color="255,230,230" fill="1" layer="-1.00" shape="465.643594,1164.717785 474.150090,1158.315465 474.650532,1157.600452 474.920819,1156.702703 474.857720,1155.702996 474.494934,1154.800684 471.449684,1150.267892 460.867442,1158.141411 465.643594,1164.717785"/>
    <poly id="101084255" type="building" color="255,230,230" fill="1" layer="-1.00" shape="426.152381,1134.186216 434.379589,1128.359138 436.344636,1131.230731 439.358682,1129.110163 442.524248,1133.417026 431.214904,1141.444457 426.152381,1134.186216"/>
    <poly id="101084260" type="building" color="255,230,230" fill="1" layer="-1.00" shape="483.515799,1190.212070 471.280109,1198.810547 465.954150,1191.181300 476.616543,1183.661626 478.322124,1182.534604 483.515799,1190.212070"/>
    <poly id="101084263" type="building" color="255,230,230" fill="1" layer="-1.00" shape="469.601967,1177.515002 460.679542,1183.628514 455.331850,1175.977629 467.471867,1167.226005 474.306977,1161.916373 480.277828,1169.972707 477.121811,1172.297514 474.398748,1168.723805 467.181692,1173.955091 469.601967,1177.515002"/>
    <poly id="101084264" type="building" color="255,230,230" fill="1" layer="-1.00" shape="490.190862,1201.575841 502.410034,1192.888851 503.540061,1194.570906 511.068920,1189.675910 515.039416,1195.863118 519.802949,1192.425193 512.191770,1181.031901 504.248528,1186.450334 488.691631,1196.999843 487.497054,1197.789888 490.190862,1201.575841"/>
    <poly id="101084269" type="building" color="255,230,230" fill="1" layer="-1.00" shape="519.595391,1212.938865 527.371893,1203.063009 519.802949,1192.425193 515.039416,1195.863118 513.157027,1197.206489 515.574153,1200.655234 511.778054,1204.989714 519.595391,1212.938865"/>
    <poly id="101084275" type="building" color="255,230,230" fill="1" layer="-1.00" shape="435.873822,1148.101975 431.214904,1141.444457 442.524248,1133.417026 447.252808,1140.050352 435.873822,1148.101975"/>
    <poly id="101084279" type="building" color="255,230,230" fill="1" layer="-1.00" shape="302.646939,1219.293388 301.322867,1220.732493 298.818493,1218.443539 300.995141,1216.057000 299.198092,1214.415904 301.709118,1211.663931 301.109065,1211.079837 303.020056,1209.001173 310.493433,1215.201509 314.799879,1218.808732 310.898662,1227.675185 306.545660,1225.671622 307.576204,1223.795632 302.646939,1219.293388"/>
    <poly id="101084286" type="building" color="255,230,230" fill="1" layer="-1.00" shape="434.379589,1128.359138 426.152381,1134.186216 419.698403,1124.952807 428.090856,1118.998699 432.063364,1116.194815 434.178786,1119.162351 429.958270,1122.151205 434.379589,1128.359138"/>
    <poly id="101084288" type="building" color="255,230,230" fill="1" layer="-1.00" shape="476.616543,1183.661626 478.322124,1182.534604 494.096388,1172.212668 501.767328,1166.612661 489.986868,1150.228389 483.822185,1155.118677 489.614048,1163.313552 481.369871,1168.784938 483.665275,1171.903247 475.707681,1177.310998 476.582757,1178.677475 474.279479,1180.310808 476.616543,1183.661626"/>
    <poly id="101084297" type="building" color="255,230,230" fill="1" layer="-1.00" shape="467.471867,1167.226005 455.331850,1175.977629 448.892337,1166.754911 460.488091,1158.407944 460.867442,1158.141411 465.643594,1164.717785 467.471867,1167.226005"/>
    <poly id="101084299" type="building" color="255,230,230" fill="1" layer="-1.00" shape="512.191770,1181.031901 501.767328,1166.612661 494.096388,1172.212668 497.332584,1176.784646 498.553722,1175.938225 501.871560,1180.663709 500.737855,1181.618961 504.248528,1186.450334 512.191770,1181.031901"/>
    <poly id="101084304" type="building" color="255,230,230" fill="1" layer="-1.00" shape="368.109726,1251.835007 368.388074,1251.226340 366.871710,1250.567717 366.600389,1251.176187 363.866840,1249.995231 364.210483,1249.206698 360.124056,1247.429314 364.431480,1237.494433 368.399386,1239.308518 367.767194,1241.095463 369.585416,1241.734518 370.873619,1238.760845 378.055715,1241.842603 377.375761,1243.430588 379.718776,1244.477815 380.842431,1244.924875 376.862210,1254.238581 375.695462,1253.759345 373.374775,1252.756006 372.886172,1253.893542 368.109726,1251.835007"/>
    <poly id="101084312" type="building" color="255,230,230" fill="1" layer="-1.00" shape="410.548011,1111.844541 414.541204,1105.000802 430.721337,1106.929781 430.152421,1112.743084 424.898746,1112.233420 424.826956,1114.193858 428.090856,1118.998699 419.698403,1124.952807 410.548011,1111.844541"/>
    <poly id="101084314" type="building" color="255,230,230" fill="1" layer="-1.00" shape="487.497054,1197.789888 488.691631,1196.999843 483.515799,1190.212070 471.280109,1198.810547 476.225104,1205.894073 487.497054,1197.789888"/>
    <poly id="101084319" type="building" color="255,230,230" fill="1" layer="-1.00" shape="453.597270,1149.142196 442.540547,1157.652151 435.873822,1148.101975 447.252808,1140.050352 453.597270,1149.142196"/>
    <poly id="101084321" type="building" color="255,230,230" fill="1" layer="-1.00" shape="465.954150,1191.181300 460.679542,1183.628514 469.601967,1177.515002 471.547908,1176.180967 474.279479,1180.310808 476.616543,1183.661626 465.954150,1191.181300"/>
    <poly id="101084324" type="building" color="255,230,230" fill="1" layer="-1.00" shape="438.175637,1250.076345 443.891288,1245.732663 451.120004,1254.510471 445.549561,1259.016998 438.175637,1250.076345"/>
    <poly id="101084326" type="building" color="255,230,230" fill="1" layer="-1.00" shape="498.368275,1213.097939 492.965693,1205.493061 481.594751,1213.577746 486.905990,1221.185165 498.368275,1213.097939"/>
    <poly id="101084327" type="building" color="255,230,230" fill="1" layer="-1.00" shape="341.378508,1165.332223 346.391142,1159.739568 354.485603,1167.024215 352.712632,1169.009978 349.499833,1172.571601 342.821583,1166.638283 341.378508,1165.332223"/>
    <poly id="101084335" type="building" color="255,230,230" fill="1" layer="-1.00" shape="492.965693,1205.493061 490.190862,1201.575841 487.497054,1197.789888 476.225104,1205.894073 481.594751,1213.577746 492.965693,1205.493061"/>
    <poly id="101084337" type="building" color="255,230,230" fill="1" layer="-1.00" shape="442.540547,1157.652151 453.597270,1149.142196 460.488091,1158.407944 448.892337,1166.754911 442.540547,1157.652151"/>
    <poly id="1012773806" type="building" color="255,230,230" fill="1" layer="-1.00" shape="872.060940,2669.642841 887.358574,2668.849145 885.627685,2635.259166 870.329642,2636.041747 872.060940,2669.642841"/>
    <poly id="101312343" type="building" color="255,230,230" fill="1" layer="-1.00" shape="555.760879,1164.470154 546.505816,1158.174582 544.070962,1162.148319 541.912677,1160.161154 539.736598,1162.069089 540.488622,1164.318081 548.991486,1173.394256 555.760879,1164.470154"/>
    <poly id="101312344" type="building" color="255,230,230" fill="1" layer="-1.00" shape="546.995787,1147.767870 542.450211,1146.170078 543.754221,1133.937984 547.122686,1134.433656 545.966605,1143.401278 548.829022,1144.411819 546.995787,1147.767870"/>
    <poly id="101312345" type="building" color="255,230,230" fill="1" layer="-1.00" shape="558.457514,1128.319693 557.827894,1133.978887 552.336769,1133.275433 552.068365,1134.996554 547.122686,1134.433656 543.754221,1133.937984 545.337582,1121.887255 558.815312,1124.259314 558.457514,1128.319693"/>
    <poly id="101312346" type="building" color="255,230,230" fill="1" layer="-1.00" shape="509.893113,1117.380392 507.313758,1134.054593 505.814465,1134.007461 498.617176,1124.594433 499.506382,1116.146117 509.893113,1117.380392"/>
    <poly id="101312347" type="building" color="255,230,230" fill="1" layer="-1.00" shape="571.249793,1136.619594 561.095263,1133.876510 562.238221,1128.970773 558.457514,1128.319693 558.815312,1124.259314 573.253705,1126.782619 574.649971,1129.436468 571.249793,1136.619594"/>
    <poly id="101312348" type="building" color="255,230,230" fill="1" layer="-1.00" shape="438.999607,1108.211725 434.426333,1107.638524 433.358251,1116.225386 437.931206,1116.787467 438.999607,1108.211725"/>
    <poly id="101312350" type="building" color="255,230,230" fill="1" layer="-1.00" shape="531.049109,1171.057920 530.185304,1171.605038 537.583853,1182.436795 547.826824,1175.507616 548.991486,1173.394256 540.488622,1164.318081 537.020079,1166.785109 531.049109,1171.057920"/>
    <poly id="101312351" type="building" color="255,230,230" fill="1" layer="-1.00" shape="566.468033,1145.955517 571.249793,1136.619594 561.095263,1133.876510 559.401326,1141.968953 566.468033,1145.955517"/>
    <poly id="101312352" type="building" color="255,230,230" fill="1" layer="-1.00" shape="519.101622,1118.480690 511.205470,1117.532895 509.893113,1117.380392 507.313758,1134.054593 506.752287,1137.619933 514.635459,1147.670329 517.455752,1145.410563 513.269905,1140.075053 514.912146,1138.693882 512.039153,1135.291254 513.220807,1128.247956 517.886648,1128.863149 519.101622,1118.480690"/>
    <poly id="101312353" type="building" color="255,230,230" fill="1" layer="-1.00" shape="545.337582,1121.887255 543.754221,1133.937984 542.450211,1146.170078 541.109387,1151.292767 532.276492,1150.293216 534.140132,1139.213867 537.960514,1139.774802 538.887941,1131.937436 535.231044,1131.438699 536.308496,1120.915429 545.337582,1121.887255"/>
    <poly id="101312354" type="building" color="255,230,230" fill="1" layer="-1.00" shape="525.836084,1137.509653 522.274077,1137.386606 520.672402,1133.926206 521.045544,1129.409169 517.886648,1128.863149 519.101622,1118.480690 527.946260,1119.646805 525.836084,1137.509653"/>
    <poly id="101312355" type="building" color="255,230,230" fill="1" layer="-1.00" shape="551.041333,1150.347719 546.995787,1147.767870 548.829022,1144.411819 554.178682,1147.856569 557.951503,1141.174886 559.401326,1141.968953 566.468033,1145.955517 560.799145,1156.262053 551.041333,1150.347719"/>