<?xml version="1.0"?>

<routes> <!-- The opening tag -->

   <!-- Vehicle types -->
   <vType id="passenger" length="5.0" width="2.0" maxSpeed="70.0" accel="2.6" decel="4.5" sigma="0.5"/>

   <!-- Routes + associated vehicles & flows -->
   <route id="trip-0" color="Magenta" edges="30777828#0 30777829#0 30777829#1 35282302 33444803#0 333438196 39606300 33302833 147144449 25071938 1236288010 154755085#0 154755085#1 83703647#2 83703647#3 83703647#4 83703645 23493040 64488045 917044790 542512895 23493176#0 154755112#0 154755112#4 154755112#7 154755096#0 -8225101 -154755102#3 -154755102#1 -154755102#0 4353628#0 4353628#1 26811376#0 154755095#1 26811074#0 26811074#1 26811074#2 26811074#3"/>
   <vehicle id="vehicle-0" type="passenger" color="Yellow" depart="0.0" route="trip-0"/>

   <route id="trip-1" color="Magenta" edges="8225124#0 8225124#1 8225124#2 -4356393#1 165511531 8225109#0 8225109#3 23015531#0 23015531#3 69366483 85414282#1 23567938 109063043 23493260#0 23493260#4 23493260#5 1065802294 303244426 768603506 4400319 48587087 48587086#0 48587086#1 1075393377 100132117 30743982 44037603#0 44037603#1 115844479#0 301750520#0 250959563 115849681#0 250959560 37873580#2 37873577 288162964#0"/>
   <vehicle id="vehicle-1" type="passenger" color="Yellow" depart="0.01" route="trip-1"/>

   <route id="trip-2" color="Magenta" edges="23568396#2 10318490#0 136413965#0 667410648 169453890#0 402179132 37873574 175589820 315921077#0 315921077#1 23487153#0 48826945#0 32213071#0 540101366 -32007885#4 -32007885#1 -88235135#1 154511600#0 154511600#1 -154511600#2"/>
   <vehicle id="vehicle-2" type="passenger" color="Yellow" depart="0.02" route="trip-2"/>

   <route id="trip-3" color="Magenta" edges="1210657203 1210657199#0 1210657199#1 1208340030#2 1208340029 1210657198 -167324659#2 -144935692#2 -144935692#1 -144935692#0 -541566701 -28523803#2 -541566703#2 -32064261 -32064260#8 -32064260#3 -219098056 219098057#0 206080341#0 206080341#3 -37347656 4045160#0 4045160#2 4045160#3 42999417#0 42999417#3 42999417#6 28841605#0 32635135#0 -32635135#3"/>
   <vehicle id="vehicle-3" type="passenger" color="Yellow" depart="0.03" route="trip-3"/>

   <route id="trip-4" color="Magenta" edges="-930736465 -930736464 -835792564 -930736468 -930736467 -186463490 -55940134#2 -167324659#2 -144935692#2 -144935692#1 -144935692#0 -541566701 -28523803#2 -541566703#2 -32064261 -32064260#8 -32064260#3 -219098056 219098057#0 -219018761#1 -219018762#2 -219018762#1 -32021100#6 -32021100#2 -32021100#0 -37390741#3 -37390741#2 8196618#0 8196618#1 917044797#1 917044797#2 917044796 150031197#0 150031197#1 150031197#2 150031197#3 150031197#4 150031197#6 -37331983#3"/>
   <vehicle id="vehicle-4" type="passenger" color="Yellow" depart="0.04" route="trip-4"/>

   <route id="trip-5" color="Magenta" edges="154502589 154502577 150039005#0 150039005#1 4534449 1317567180 169465734#1 169465735#1 501456678 169453887#0 402179132 37873574 175589820 315921077#0 315921077#1 154755110#0 86415860#0 86415860#1 88680005#1 203971499#0 -533123612#2"/>
   <vehicle id="vehicle-5" type="passenger" color="Yellow" depart="0.05" route="trip-5"/>

   <route id="trip-6" color="Magenta" edges="4400297#0 205044667 53212168 23800804#1 4400211#0 4400211#1 4400211#3 4400211#4 4400211#5 130997388#0 130997388#1 130659365 393422408#0 393422408#1 4400215#0 50628731#0 50628731#1 50628731#4 150031207#5 150031207#8 23493261#0 28542995#0 303244432#0 303244432#1 734784830#0 109063043 23493260#0 23493260#4 23493260#5 1065802294 303244426 768603506 48587065#0 48587065#1 146789540#0 146789540#1 768602479 25071937 4400322#0 39606301 189054412 78419224#1"/>
   <vehicle id="vehicle-6" type="passenger" color="Yellow" depart="0.06" route="trip-6"/>

   <route id="trip-7" color="Magenta" edges="-23015147 23015861#0 44037603#0 44037603#1 115844479#0 301750520#0 250959563 115849681#0 250959560 37873580#2 37873577 288162964#0 1065800353 24040357 24037710 7974185#1"/>
   <vehicle id="vehicle-7" type="passenger" color="Yellow" depart="0.07" route="trip-7"/>

   <route id="trip-8" color="Magenta" edges="25102283#6 154507099 38574426#2 38574426#3 94097290#0 115106778#2 154755116#0 154755116#2 667410678#0 51081171#0 51081171#1 51081171#2 906649715 751168040#0 751168040#1 5667174#0 5667174#2 37347656 -37347656"/>
   <vehicle id="vehicle-8" type="passenger" color="Yellow" depart="0.08" route="trip-8"/>

   <route id="trip-9" color="Magenta" edges="22598769#1 22598769#2 22598769#3 22598769#4 22598769#6 22598769#9 22598769#10 37873570#0 37873570#1 48012544#0 48012544#2 48012544#3 877599645 203322740#0 -154511600#2 -154511600#0 88235135#0 995953631 32007885#2 31951737#0 31951737#2 32902927 179639808#0 179639808#1 636113045 23014984 23487155#0 23487155#1 23487155#2 23487155#3 23487155#4 23487155#5 1300352454 216475699#1 216475699#2 216475699#3 500272217#0 500272215#0 500272213#0 9615451#0 453509785 37873758 23014989 -494470561#1 -494470561#0 47149088#0 47149088#1 52336762"/>
   <vehicle id="vehicle-9" type="passenger" color="Yellow" depart="0.09" route="trip-9"/>

   <route id="trip-10" color="Magenta" edges="25150041#0 25150041#1 25150041#2 8196629#4 8196629#5 8196629#7 8196629#8 1188278006#0 154502579#0 667410645 667410646#0 667410646#1 27115018#0 198171539#0 1317567180 169465734#1 169465735#1 501456678 169453887#0 402179132 37873574 175589820 315921077#0 315921077#1 -315921078#3 -315921078#0 -219188460#7 -219188460#5 -219188460#4 -219188460#3 -219188460#1 -154755109#1 -154755109#0 -63566383 -288162959 -63530469 288162960#0 37873577 288162964#0 1065800353 24040357 24037710"/>
   <vehicle id="vehicle-10" type="passenger" color="Yellow" depart="0.1" route="trip-10"/>

   <route id="trip-11" color="Magenta" edges="154502572#1 154502572#2 154502572#3 154502572#4 154502572#5 -10212091#4 23015813#0 329890956 667410646#1 27115018#0 198171539#0 1317567180 169465734#1 169465735#1 501456678 169453887#0 4400324#0 169453889#0-AddedOnRampEdge 169453889#0 203971501#0 727302499 1135417454#0 1135417454#2 4400318 48591635#0 23568429 48591634#0 48591634#1 50557487#0 50557487#1 188052918#1 154755085#0 4400311#0 145033134#1 199239574#1 32108791#0 32108791#2 23493260#4 23493260#5 1065802294 303244426 768603506 4400319"/>
   <vehicle id="vehicle-11" type="passenger" color="Yellow" depart="0.11" route="trip-11"/>

   <route id="trip-12" color="Magenta" edges="23014990 154507081#0 154507081#1 154507083 -23014988#0 -877603541#1 568235965#0 32903236#0 32903236#1 31951782#0 31951782#1 636113045 23014984 22949994#0 22949994#1 52303559#0 52303559#1 52303559#2 32029471 -39764938#1 154755110#0 86415848 175589819#0 175589819#1 175589819#2 154333001#1 169453888#0 145345137#0 1065802292 667410647 1317567192#0 1317567192#1 150039007#1 667410644#0 9823971#0 9823971#1 9823971#2 9823971#3 857811041#0 51081171#0 51081171#1 51081171#2 906649715 751168040#0 751168040#1 115106777#0 115106777#2 27404213#0 118041104#0"/>
   <vehicle id="vehicle-12" type="passenger" color="Yellow" depart="0.12" route="trip-12"/>

   <route id="trip-13" color="Magenta" edges="22598769#1 22598769#2 22598769#3 22598769#4 22598769#6 22598769#9 22598769#10 37873570#0 51749453 23393212#0 23393212#1 23393212#2 24594310#0 24594310#1 51827455#1 23016541#0 23016541#1 543524596#0"/>
   <vehicle id="vehicle-13" type="passenger" color="Yellow" depart="0.13" route="trip-13"/>

   <route id="trip-14" color="Magenta" edges="22598769#1 22598769#2 22598769#3 22598769#4 22598769#6 22598769#9 22598769#10 37873570#0 51749453 23393212#0 23393212#1 23393212#2 24594310#0 24594310#1 51827455#1 23016541#0 23016541#1 154502573#0 154502572#0 154502572#1 154502572#2 154502572#3 154502572#4 154502572#5 -10212091#4 -10212091#3"/>
   <vehicle id="vehicle-14" type="passenger" color="Yellow" depart="0.14" route="trip-14"/>

   <route id="trip-15" color="Magenta" edges="1274238532#2 1274238532#3 1274238531#1 1056585357 4400295 53212168 23800804#1 4400211#0 4400211#1 4400211#3 4400211#4 4400211#5 130997388#0 130997388#1 130659365 393422408#0 393422408#1 4400215#0 50628731#0 50628731#1 50628731#4 150031207#5 8096211#0 26519352#0 26519352#3 8096212#0 948795440 165511531 8225109#0 8225109#3 85470309#3 85470309#4 85470309#5 -8225144#0 -667410643#1 -667410643#0 -8225118#2 154502579#0 667410645 667410646#0 667410646#1 4534554#0 4534554#1 369767417 23015817 22598789 37744760"/>
   <vehicle id="vehicle-15" type="passenger" color="Yellow" depart="0.15" route="trip-15"/>

   <route id="trip-16" color="Magenta" edges="-877603541#1 568235965#0 32903236#0 32903236#1 31951782#0 31951782#1 636113045 23014984 22949994#0 22949994#1 52303559#0 52303559#1 52303559#2 32029471 -39764938#1 154755110#0 86415848 175589819#0 175589819#1 175589819#2 154333001#1 169453888#0 145345137#0 1065802292 667410647 1317567192#0 1317567192#1 150039007#1 667410644#0 9823971#0 9823971#1 9823971#2 9823971#3 857811040 34896249#1 26784646 386265906#0 37331980#0 145575262 -27290012#2 -27290012#1"/>
   <vehicle id="vehicle-16" type="passenger" color="Yellow" depart="0.16" route="trip-16"/>

   <route id="trip-17" color="Magenta" edges="1300315688#0 186463493#0 150031203#0 150031227#0 150031230 542512892#0 542512892#1 150031207#0 150031207#3 150031207#5 150031207#8 23493261#0 28542995#0 303244432#0 303244432#1 734784830#0 109063043 23493260#0 23493260#4 23493260#5 1065802294 303244426 768603506 48587065#0 48587065#1"/>
   <vehicle id="vehicle-17" type="passenger" color="Yellow" depart="0.17" route="trip-17"/>

   <route id="trip-18" color="Magenta" edges="175589819#2 154333001#1 145345139#0 169453889#0-AddedOnRampEdge 169453889#0 203971501#0 727302499 1135417454#0 1135417454#2 4400318 23568083 1075393377 100132117 30743982 44037603#0 44037603#1 32233474#0 32233474#3 142518656#1 23914009#2 23914010#0 23914010#1"/>
   <vehicle id="vehicle-18" type="passenger" color="Yellow" depart="0.18" route="trip-18"/>

   <route id="trip-19" color="Magenta" edges="186608627 154502580#0 154502580#3 154502580#4 -41581217#2 -41581217#1 -8196681#3 -43086693#1 -43086693#0 43086693#0"/>
   <vehicle id="vehicle-19" type="passenger" color="Yellow" depart="0.19" route="trip-19"/>

   <route id="trip-20" color="Magenta" edges="8196629#2 8196629#3 8196629#4 8196629#5 8196629#7 8196629#8 1188278006#0 9823971#0 9823971#1 9823971#2 9823971#3 857811040 34896249#1 26784646 386265906#0 37331980#0 37331980#5 219098055#0 1300315688#0 186463493#0 150031203#0 150031227#0 150031230 542512892#0 542512892#1 98715988#0 98715988#2 98715988#5 129833341"/>
   <vehicle id="vehicle-20" type="passenger" color="Yellow" depart="0.2" route="trip-20"/>

   <route id="trip-21" color="Magenta" edges="198358797#4 198358797#5 857814916#0 4391134 386265906#0 37331980#0 145575262 -27290012#2 -27290012#1 -27290012#0 4390554#1 5667168#0 -32064260#3 -219098056 219098057#0 -219018761#1 -219018762#2 -219018762#1 -219018760#1 -1206700100 -32037433 -27431134"/>
   <vehicle id="vehicle-21" type="passenger" color="Yellow" depart="0.21" route="trip-21"/>

   <route id="trip-22" color="Magenta" edges="199239574#1 32108791#0 32108791#2 23493260#4 23493260#5 1065802294 303244426 768603507 37276375 367049196#0 10318490#0 136413965#0 667410648 169453890#0 402179132 37873574 175589820 315921077#0 315921077#1 23487153#0 48826945#0 32213071#0 540101366 31951737#0 31951737#2 32902927 179639808#0 179639808#1 636113045 23014984"/>
   <vehicle id="vehicle-22" type="passenger" color="Yellow" depart="0.22" route="trip-22"/>

   <route id="trip-23" color="Magenta" edges="-8225153#0 24900359#0 24900359#1 24900427#1 24900427#2 8225124#2 -4356393#1 165511531 31694494 948795440"/>
   <vehicle id="vehicle-23" type="passenger" color="Yellow" depart="0.23" route="trip-23"/>

   <route id="trip-24" color="Magenta" edges="-8196629#2 -8196629#0 38574426#0 38574426#2 38574426#3 94097290#0 115106778#2 154755116#0 154755116#2 667410678#0 51081171#0 51081171#1 51081171#2 906649715 751168040#0 751168040#1 5667174#0 5667174#2 37347656 219018758#0 32011636#0 51857159 219098056 -219098056 219098057#0 -219018761#1 -219018762#2 1305606232#2 150031236 4401678"/>
   <vehicle id="vehicle-24" type="passenger" color="Yellow" depart="0.24" route="trip-24"/>

   <route id="trip-25" color="Magenta" edges="-219098056 219098057#0 206080341#0 206080341#3 -37347656 27404213#0 118041104#0 26704778#8 115106778#0 115106778#2 115106778#3 26784170#0 26784170#3 667410641#0 154502579#0 667410645 667410646#0 667410646#1 4534554#0 4534554#1 369767417 23015817 22598789 37744760"/>
   <vehicle id="vehicle-25" type="passenger" color="Yellow" depart="0.25" route="trip-25"/>

   <route id="trip-26" color="Magenta" edges="154502563#0 37637984 -37637984 8195774#0 25101965#0 25101965#2 667410669#0 150034730#0 667410671#0 8196629#2 8196629#3 8196629#4 8196629#5 8196629#7 8196629#8 1188278006#0 8225118#0 1302685185 667410643#1 8225144#0 8225144#1 8225144#2 238511181 8225140#1 8225140#2 -22873524#2 -22873524#1 -22873524#0 22873524#0"/>
   <vehicle id="vehicle-26" type="passenger" color="Yellow" depart="0.26" route="trip-26"/>

   <route id="trip-27" color="Magenta" edges="79689707 -8225110#0 85470309#4 85470309#5 8225144#1 8225144#2 238511181 8225140#1 8225140#2 -22873524#2 -22873524#1 -22873524#0 23015527#0 23015527#3 200671461 533123612#0 203971501#0 727302499 1135417454#0 1135417454#2 -121935993#6 -121935993#5 -121935993#4 -121935993#3 -121935993#0 121935993#0 121935993#3"/>
   <vehicle id="vehicle-27" type="passenger" color="Yellow" depart="0.27" route="trip-27"/>

   <route id="trip-28" color="Magenta" edges="32856811#1 154755082#0 980116966 -154755073#0 -1196295672#3 -1196295672#2 4941746#0 4401673#4 4401673#5 1272512390#0 1272512390#2 1272512390#3 612188894#0 1228473203#0 -144935692#1 -144935692#0 -541566701 -28523803#2 -541566703#2 -32064261 -32064260#8 -32064260#3 -219098056 219098057#0 206080341#0 206080341#3 -37347656 4045160#0 4045160#2 4045160#3 42999417#0 42999417#3 42999417#6 28841605#0 32635135#0 -340443758#3 -340443758#2 -23328072#3 -23328072#2 -23328072#1 -23328072#0 23328072#0 23328072#1 23328072#2 23328072#3 340443758#0 340443758#3"/>
   <vehicle id="vehicle-28" type="passenger" color="Yellow" depart="0.28" route="trip-28"/>

   <route id="trip-29" color="Magenta" edges="-23015533 23015529#1 83823403#0 83823403#1 -22873531#1 200671461 533123612#0 136413965#0 667410648 169453890#0 145345146#0 169453895 665030635#0 32902722#0 32902722#2 32902722#7 150039005#0 150039005#1"/>
   <vehicle id="vehicle-29" type="passenger" color="Yellow" depart="0.29" route="trip-29"/>

   <route id="trip-30" color="Magenta" edges="83703647#4 83703645 23493040 64488045 917044790 542512895 154755115#1 147148321 23493179#0 50629722 129833340#0 129833341 917044794#0 129833347#0 2829323#0 4401673#0 4401673#4 4401673#5 1272512390#0"/>
   <vehicle id="vehicle-30" type="passenger" color="Yellow" depart="0.3" route="trip-30"/>

   <route id="trip-31" color="Magenta" edges="-88235135#1 154511600#0 -154511600#0 88235135#0 995953631 32007885#2 32008097#0 479545489#0 479545489#1 169455026 187070212#0 37873571#0 37873571#1 37873571#2 187070213#0 402179132 37873574 175589820 315921077#0 315921077#1 154755110#0 86415848 175589819#0"/>
   <vehicle id="vehicle-31" type="passenger" color="Yellow" depart="0.31" route="trip-31"/>

   <route id="trip-32" color="Magenta" edges="-79689707 79689707 8225110#1 8142293#0 8142293#2 8142293#3 8142293#4 8142293#5 8142293#6 9823971#1 9823971#2 9823971#3 857811040 34896249#1 154755136 8225132 8225153#0"/>
   <vehicle id="vehicle-32" type="passenger" color="Yellow" depart="0.32" route="trip-32"/>

   <route id="trip-33" color="Magenta" edges="-25677606#1 25677606#1 25677606#2 25150041#1 25150041#2 8196629#4 8196629#5 8196629#7 8196629#8 1188278006#0 154502579#0 667410645 667410646#0 667410646#1 27115018#0 198171539#0 1317567180 169465734#1 169465735#1 501456678 169453887#0 402179132 37873574 175589820 315921077#0 315921077#1 -315921078#3 -315921078#0 -219188460#7 -219188460#5 -219188460#4 -219188460#3 -219188460#1 -154755109#1 -154755109#0 -63566383 -30095780#1 -30095780#0 30095780#0 30095780#1"/>
   <vehicle id="vehicle-33" type="passenger" color="Yellow" depart="0.33" route="trip-33"/>

   <route id="trip-34" color="Magenta" edges="-36695921#3 -36695921#2 -36695921#0 63566383 202654192#0 154755109#1 219188460#0 219188460#2 219188460#4 219188460#5 219188460#6 315921078#0 315921078#1 154755110#0 86415848 175589819#0 175589819#1 175589819#2 154333001#1 169453888#0 145345146#0 169453895 169453894 22949651 164158186 34998404#0 34998404#3 543531546#0 543524593 925248670#0 543524596#0 543524596#2"/>
   <vehicle id="vehicle-34" type="passenger" color="Yellow" depart="0.34" route="trip-34"/>

   <route id="trip-35" color="Magenta" edges="4400302 33469672 33444801 370457083 33444803#0 333438196 39606300 33302833 147144449 5667165#0 48591706#0 48591706#1 204025234#0 204025234#1 48587086#1 1075393377 100132117 30743982 44037603#0 44037603#1 115844479#0 301750520#0 250959563 115849681#0 250959560 47892504#0 63530469 288162959 36695921#0 36695921#1 36695921#3 36695920#2 142387043#1 142387043#2 1302644973#1 23487183#0 -23487183#2"/>
   <vehicle id="vehicle-35" type="passenger" color="Yellow" depart="0.35" route="trip-35"/>

   <route id="trip-36" color="Magenta" edges="-154755073#2 -154755073#1 -154755073#0 -1196295672#3 -1196295672#2 4941746#0 4401673#4 4401673#5 1272512390#0 1272512390#2 1272512390#3 1179783835#0 166222937#0 1208340029 1210657198 -167324659#2 167324659#0 55940134#0 186463490 -186463490"/>
   <vehicle id="vehicle-36" type="passenger" color="Yellow" depart="0.36" route="trip-36"/>

   <route id="trip-37" color="Magenta" edges="-63566383 63566383 202654192#0 154755109#1 219188460#0 219188460#2 219188460#4 219188460#5 219188460#6 315921078#0 315921078#1 154755110#0 86415860#0 86415860#1 88680005#1 203971499#0 203971501#0 10318488#0 10318488#2 4400322#0 39606301 189054412 78419225#0 33444803#0 333438196 39606300 4400306#0"/>
   <vehicle id="vehicle-37" type="passenger" color="Yellow" depart="0.37" route="trip-37"/>

   <route id="trip-38" color="Magenta" edges="86415860#0 86415860#1 88680005#1 203971499#0 136413965#0 667410648 145345141#0 1065802292 667410647 1317567192#0 1317567192#1 150039007#1 667410644#0 9823971#0 9823971#1 9823971#2 9823971#3 857811041#0 51081171#0 51081171#1 51081171#2 906649715 751168040#0 751168040#1 115106777#0 115106777#2 4045160#0 4045160#2 4045160#3 42999417#0 42999417#3 42999417#6 32021100#0 32021100#1 32021100#3 218930183#0 218930181 218895701 4401680"/>
   <vehicle id="vehicle-38" type="passenger" color="Yellow" depart="0.38" route="trip-38"/>

   <route id="trip-39" color="Magenta" edges="-8225110#0 85470309#4 85470309#5 -8225144#0 -667410643#1 -667410643#0 -8225118#2 154502579#0 667410645 667410646#0 667410646#1 27115018#0 198171539#0 1317567180 169465734#1 169465735#1 501456678 169453887#0 402179132 37873574 175589820 315921077#0 315921077#1 23015860#0 23015860#2 63589540"/>
   <vehicle id="vehicle-39" type="passenger" color="Yellow" depart="0.39" route="trip-39"/>

   <route id="trip-40" color="Magenta" edges="-4121461#0 -150031225#2 -150031225#0 27431138#0 27431138#2 -457420988 4045161#0 4045161#1 383178036#0 383178036#1 383178034 150594021#0 150594021#3 4045164#0 4045164#5 115106778#0 115106778#2 115106778#3 26784170#0 26784170#3 667410641#0 154502579#0 667410645 667410646#0 667410646#1 27115018#0 198171539#0 1317567180 169465734#1 169465735#1 501456678 169453887#0 4400324#0 169453889#0-AddedOnRampEdge 169453889#0 203971501#0 10318488#0 10318488#2 4400322#0 39606301 189054412 78419224#1 78419226#0 401880207 5667170#0 5667170#2 328877108#0 9831835#0 30777828#0"/>
   <vehicle id="vehicle-40" type="passenger" color="Yellow" depart="0.4" route="trip-40"/>

   <route id="trip-41" color="Magenta" edges="33444801 370457083 33444803#0 333438196 39606300 33302833 147144448 23568396#2 10318490#0 136413965#0 667410648 145345141#0 1065802292 667410647 1317567192#0 1317567192#1 150039007#1 667410644#0 -1188278006#2 -8196629#8 -8196629#7 -8196629#6 -8196629#4 -8196629#3 -8196629#2 -8196629#0 8196616#0 8196616#2 667410673#0 37331983#1 23401189 8196623"/>
   <vehicle id="vehicle-41" type="passenger" color="Yellow" depart="0.41" route="trip-41"/>

   <route id="trip-42" color="Magenta" edges="373038379 154755092#0 -154755092#3 -373038379 -82548195#3 318067901#0 245991949#0 245991949#2 301750520#0 250959563 115849681#0 250959560 47892504#0 63530469 288162959 63566383 202654192#0 154755109#1 219188460#0 219188460#2 219188460#4 219188460#5 219188460#6 315921078#0 315921078#1 154755110#0 86415848 175589819#0 175589819#1 175589819#2 154333001#1 169453888#0 145345137#0 1065802292 667410647 1317567192#0 1317567192#1 150039007#1 667410644#0 9823971#0 9823971#1 9823971#2 9823971#3 857811041#0 51081171#0 51081171#1 51081171#2 8225162 376717641#0"/>
   <vehicle id="vehicle-42" type="passenger" color="Yellow" depart="0.42" route="trip-42"/>

   <route id="trip-43" color="Magenta" edges="32635135#0 -32635135#3 -457420988 4045161#0 4045161#1 383178036#0 383178036#1 383178034 150594021#0 150594021#3 4045164#0 4045164#5 115106778#0 115106778#2 115106778#3 26784170#0 26784170#3 667410641#0 9823971#0 9823971#1 24900427#0 24900427#1 24900427#2"/>
   <vehicle id="vehicle-43" type="passenger" color="Yellow" depart="0.43" route="trip-43"/>

   <route id="trip-44" color="Magenta" edges="-1049201852 1049201852 353073074#0 353073074#1 353073074#2 353073074#4 398530200#0 543524588#0 543524590#0 543524593 925248670#0 543524596#0 543524596#2 1208627302 34998405 37873571#0 37873571#1 37873571#2 187070213#0 4400324#0 169453889#0-AddedOnRampEdge 169453889#0 203971501#0 727302499 1135417454#0 1135417454#2 4400318 23568083 1075393377 100132117 30743982 44037603#0 44037603#1 32233474#0 32233474#3 142518656#1 23914009#2 23914009#3 4537892#0 4537892#1 4537892#2 37276374#0 37276374#1 37276374#2 23493807#0 -245997977#1"/>
   <vehicle id="vehicle-44" type="passenger" color="Yellow" depart="0.44" route="trip-44"/>

   <route id="trip-45" color="Magenta" edges="-26229488#1 22598769#6 22598769#9 22598769#10 37873570#0 51749453 23393212#0 23393212#1 23393212#2 24594310#0 24594310#1 51827455#1 23016541#0 23016541#1 154502573#0 154502572#0 154502572#1 154502572#2 154502572#3 154502572#4 154502572#5 -10212091#4 23015813#0 329890957 4534554#1"/>
   <vehicle id="vehicle-45" type="passenger" color="Yellow" depart="0.45" route="trip-45"/>

   <route id="trip-46" color="Magenta" edges="8196681#5 8196681#6 8196681#7 8196681#8 4534418 206006203#0 202849696#0 202849696#2 34998402#0 543524588#0 543524590#0 543524593 925248670#0 543524596#0 543524596#2 1208627302 34998405 37873571#0 37873571#1 37873571#2 187070213#0 4400324#0 169453889#0-AddedOnRampEdge 169453889#0 203971501#0 727302499 1135417454#0 1135417454#2 4400318 48591635#0 23568429 145035674 23568275#0 37276375 37866520 -37866521 -83823403#2 -83823403#0 -83823409#1 -238511108#1 -238511108#0 -69366482 69366483 85414282#1 8225102 33511920 85470315 85470309#0 85470309#1 85470309#2"/>
   <vehicle id="vehicle-46" type="passenger" color="Yellow" depart="0.46" route="trip-46"/>

   <route id="trip-47" color="Magenta" edges="154507099 38574426#2 38574426#3 94097290#0 115106778#2 154755116#0 154755116#2 667410678#0 51081171#0 51081171#1 51081171#2 906649715 751168040#0 751168040#1 5667174#0 5667174#2 37347656 219018758#0 32011636#0 51857159 219098056 32064260#0 32064260#5 32064261 541566703#0 28523803#0 541566701"/>
   <vehicle id="vehicle-47" type="passenger" color="Yellow" depart="0.47" route="trip-47"/>

   <route id="trip-48" color="Magenta" edges="877599646 1070283593 23393212#0 23393212#1 23393212#2 24594310#0 24594310#1 51827455#1 23016541#0 23016541#1 543524596#0 543524596#2 1208627302 34998405 37873571#0 37873571#1 37873571#2 187070213#0 4400324#0 169453889#0-AddedOnRampEdge 169453889#0 203971501#0 727302499 1135417454#0 1135417454#2 4400318 48591635#0 23568429 48591634#0 48591634#1 50557487#0 50557487#1 188052918#1 154755085#0"/>
   <vehicle id="vehicle-48" type="passenger" color="Yellow" depart="0.48" route="trip-48"/>

   <route id="trip-49" color="Magenta" edges="-457420988 4045161#0 4045161#1 383178036#0 383178036#1 383178034 150594021#0 150594021#3 4045164#0 4045164#5 115106778#0 115106778#2 115106778#3 26784170#0 26784170#3 667410641#0 154502579#0 667410645 667410646#0 667410646#1 27115018#0 198171539#0 1317567180 169465734#1 169465735#1 501456678 169453887#0 402179132 37873574 175589820 315921077#0 315921077#1 -315921078#3 -315921078#0 -219188460#7 -219188460#5 -219188460#4 -219188460#3 -219188460#1 -154755109#1 -154755109#0 -63566383 36695921#0 36695921#1 36695921#3 36695920#2 142387043#1 142387043#2 1302644973#1 23487183#0 1300352454 216475699#1 216475699#2 216475699#3 500272217#0 500272215#0 500272213#0 9615451#0 453509785 37873758 364957117 494282521#0 485710967 154507079#0 154507079#1 568235965#0 32903236#0 32903236#1 23014986#0"/>
   <vehicle id="vehicle-49" type="passenger" color="Yellow" depart="0.49" route="trip-49"/>

   <route id="trip-50" color="Magenta" edges="-51534029#1 -51534029#0 85470309#5 -8225144#0 -667410643#1 -667410643#0 -8225118#2 154502579#0 667410645 667410646#0 667410646#1 27115018#0 198171539#0 1317567180 169465734#1 169465735#1 501456678 169453887#0 402179132 37873574 175589820 315921077#0 315921077#1 -315921078#3 -315921078#0 -219188460#7 -219188460#5 -219188460#4 -219188460#3 -219188460#1 -154755109#1 -154755109#0 -63566383 36695921#0 36695921#1 36695921#3 36695920#2 142387043#1 142387043#2 1302644973#1 23487183#0 1300352454 216475699#1 216475699#2 216475699#3 500272217#0 500272215#0 500272213#0 9615451#0 453509785 37873758 23014989 -494470561#1 -494470561#0 47149088#0 47149088#1 154502570 23014986#1 4534488#0"/>
   <vehicle id="vehicle-50" type="passenger" color="Yellow" depart="0.5" route="trip-50"/>

   <route id="trip-51" color="Magenta" edges="426396929 23013270 426397833 22598769#10 37873570#0 37873570#1 48012544#0 48012544#2 48012544#3 877599645 203322740#0 -154511600#2 -154511600#0 88235135#0 995953631 32007885#2 32008097#0 479545489#0 479545489#1 169455026 187070212#0 37873571#0 37873571#1 37873571#2 187070213#0 4400324#0 169453889#0-AddedOnRampEdge 169453889#0 203971501#0 727302499 1135417454#0 1135417454#2 4400318 48591635#0 23568429 48591634#0 48591634#1 50557487#0 50557487#1 188052918#1 154755085#0 154755085#1 83703647#2 83703647#3 83703647#4 83703645 23493040 64488045 917044790 542512895 154755115#1 147148321 23493179#0 50629722 129833340#0 129833341 917044794#0 129833347#0 2829323#0 4401673#0 4401673#4 4401673#5 1272512390#0 1272512390#2 1272512390#3 1179783835#0 166222937#0 1208340029 1210657198"/>
   <vehicle id="vehicle-51" type="passenger" color="Yellow" depart="0.51" route="trip-51"/>

   <route id="trip-52" color="Magenta" edges="-27431138#2 -27431138#1 150031225#0 150031225#1 4121461#0 4121461#1 4121461#2 692825565#1 -32635135#3 -457420988 -37390741#3 -37390741#2 37390741#0 37390741#3 32021100#0 32021100#1 32021100#3 32020965"/>
   <vehicle id="vehicle-52" type="passenger" color="Yellow" depart="0.52" route="trip-52"/>

   <route id="trip-53" color="Magenta" edges="204025234#0 204025234#1 48587086#1 1075393377 100132117 30743982 44037603#0 44037603#1 115844479#0 301750520#0"/>
   <vehicle id="vehicle-53" type="passenger" color="Yellow" depart="0.53" route="trip-53"/>

   <route id="trip-54" color="Magenta" edges="39930301#1 39930301#2 667410675 667410674#0 -8196616#2 -8196616#0"/>
   <vehicle id="vehicle-54" type="passenger" color="Yellow" depart="0.54" route="trip-54"/>

   <route id="trip-55" color="Magenta" edges="318067901#0 245991949#0 245991949#2 301750520#0 250959563 115849681#0 250959560 47892504#0 63530469 288162959 63566383 202654192#0 154755109#1 219188460#0 219188460#2 219188460#4 219188460#5 219188460#6 315921078#0 315921078#1 154755110#0 86415848 175589819#0 175589819#1 175589819#2 154333001#1 169453888#0 145345146#0 169453895 169453894 22949651 164158186 34998404#0"/>
   <vehicle id="vehicle-55" type="passenger" color="Yellow" depart="0.55" route="trip-55"/>

   <route id="trip-56" color="Magenta" edges="238511181 8225140#1 8225140#2 -22873524#2 -22873524#1 -22873524#0 23015527#0 23015527#3 200671461 533123612#0 136413965#0 667410648 169453890#0 402179132 37873574 175589820 315921077#0 315921077#1 23487153#0 48826945#0 32213071#0 540101366 31951737#0 31951737#2 32902927 179639808#0 179639808#1 636113045 23014984 23487155#0 23487155#1 23487155#2 23487155#3"/>
   <vehicle id="vehicle-56" type="passenger" color="Yellow" depart="0.56" route="trip-56"/>

   <route id="trip-57" color="Magenta" edges="23487155#3 23487155#4 23487155#5 1300352454 216475699#1 216475699#2 23487158#1 23487158#2 23487158#3 23014984 22949994#0 22949994#1 52303559#0 52303559#1 52303559#2 32029471 -39764938#1 154755110#0 86415860#0 86415860#1 88680005#1 203971499#0 203971501#0 727302499"/>
   <vehicle id="vehicle-57" type="passenger" color="Yellow" depart="0.57" route="trip-57"/>

   <route id="trip-58" color="Magenta" edges="37866521 -37866521 -22873531#1 200671461 533123612#0 136413965#0 667410648 145345141#0 1065802292"/>
   <vehicle id="vehicle-58" type="passenger" color="Yellow" depart="0.58" route="trip-58"/>

   <route id="trip-59" color="Magenta" edges="494470561#1 -494470560 154507081#0 154507081#1 154507083 -23014988#0 -877603541#1 568235965#0 32903236#0 32903236#1 31951782#0 31951782#1 636113045 23014984 22949994#0 22949994#1 52303559#0 52303559#1 52303559#2 32029471 -39764938#1 154755110#0 86415860#0 86415860#1 88680005#1 -88679040 121935993#5 121935993#6 4400318 48591635#0 23568429 48591634#0 48591634#1 50557487#0 50557487#1 188052918#1 154755085#0 154755085#1 83703647#2 83703647#3 83703647#4 83703645 23493040 64488045 917044790 542512895 154755115#1 147148321 23493179#0 50629722 129833340#0 129833341 917044794#0 129833347#0"/>
   <vehicle id="vehicle-59" type="passenger" color="Yellow" depart="0.59" route="trip-59"/>

   <route id="trip-60" color="Magenta" edges="23328072#3"/>