<?xml version="1.0"?>

<routes> <!-- The opening tag -->

   <!-- Vehicle types -->
   <vType id="passenger" length="5.0" width="2.0" maxSpeed="70.0" accel="2.6" decel="4.5" sigma="0.5"/>

   <!-- Routes + associated vehicles & flows -->
   <route id="trip-0" color="Magenta" edges="8196618#0 8196618#1 917044797#1 917044797#2 917044796 150031197#0 150031197#1 150031197#2 150031197#3 150031197#4 173282740 -37637984 8195774#0 25101965#0 25101965#2 857811043 25101966 34999321#2 24693845#0 24693845#1 154502572#5 -10212091#4 23015813#0 329890956 667410646#1 27115018#0 198171539#0 1317567180 169465734#1 169465735#1 501456678 169453887#0 4400324#0 169453889#0-AddedOnRampEdge 169453889#0 203971501#0 727302499 1135417454#0 1135417454#2 4400318 23568083 1075393377 100132117 30743982 44037603#0 44037603#1 32233474#0 32233474#3 142518656#1 23914009#2 23914009#3 4537892#0 4537892#1 4537892#2 37276374#0 37276374#1 37276374#2 23493807#0 1063103289 133872755 23694447 130752274#0 -130752274#1"/>
   <vehicle id="vehicle-0" type="passenger" color="Yellow" depart="0.0" route="trip-0"/>

   <route id="trip-1" color="Magenta" edges="121935993#6 -121935993#6 -121935993#5 88679040 203971499#0 136413965#0 667410648 145345141#0 1065802292 667410647 1317567192#0 1317567192#1 150039007#1 667410644#0 -1188278006#2 -8196629#8 -8196629#7 -8196629#6 -8196629#4 -8196629#3 -8196629#2 -8196629#0 667410671#0"/>
   <vehicle id="vehicle-1" type="passenger" color="Yellow" depart="0.01" route="trip-1"/>

   <route id="trip-2" color="Magenta" edges="-8196629#4 8196629#4 8196629#5 8196629#7 8196629#8 1188278006#0 154502579#0 667410645 667410646#0 667410646#1 27115018#0 198171539#0 1317567180 169465734#1 169465735#1 501456678 169453887#0 4400324#0 169453889#0-AddedOnRampEdge 169453889#0 203971501#0 727302499 1135417454#0 1135417454#2 4400318 23568083 1075393377 100132117 30743982 44037603#0 44037603#1 115844479#0 301750520#0"/>
   <vehicle id="vehicle-2" type="passenger" color="Yellow" depart="0.02" route="trip-2"/>

   <route id="trip-3" color="Magenta" edges="202650029#1 405531873#0 154755109#1 219188460#0 219188460#2 219188460#4 219188460#5 219188460#6 315921078#0 315921078#1 154755110#0 86415848 175589819#0 175589819#1 175589819#2 154333001#1 169453888#0 145345137#0 1065802292 667410647 1317567192#0 1317567192#1 150039007#1 667410644#0 9823971#0 9823971#1 9823971#2 9823971#3 857811041#0 51081171#0 51081171#1 51081171#2 906649715 751168040#0 751168040#1 5667174#0 5667174#2 37347656 219018758#0 32011636#0 51857159 219098056 -219098056 219098057#0 -219018761#1 -219018762#2 -219018762#1 -219018760#1 -1206700100 -32037433 -27431134"/>
   <vehicle id="vehicle-3" type="passenger" color="Yellow" depart="0.03" route="trip-3"/>

   <route id="trip-4" color="Magenta" edges="9823971#3 857811041#0 51081171#0 51081171#1 51081171#2 906649715 751168040#0 751168040#1 5667174#0 5667174#2 37347656 219018758#0 32011636#0 51857159 219098056 32064260#0 32064260#5 32064261 541566703#0 28523803#0 541566701"/>
   <vehicle id="vehicle-4" type="passenger" color="Yellow" depart="0.04" route="trip-4"/>

   <route id="trip-5" color="Magenta" edges="219018761#0 206080341#0 206080341#3 -37347656 4045160#0 4045160#2 4045160#3 42999417#0 42999417#3 42999417#6 28841605#0 -457420988 -37390741#3 -37390741#2 8196623"/>
   <vehicle id="vehicle-5" type="passenger" color="Yellow" depart="0.05" route="trip-5"/>

   <route id="trip-6" color="Magenta" edges="129833341 154755117#0 23800191#0 23800191#1 23800191#2 234546135 131651824 130997388#0 130997388#1 130659365 393422408#0 393422408#1 4400215#0 50628731#0 50628731#1 50628731#4 150031207#5 150031207#8 23493261#0 28542995#0 303244432#0 303244432#1 23493181#0 23493181#3 917044790 995578820 4400193 1274238532#2 1274238532#3 1274238531#1 -1274238531#1 -1274238531#0"/>
   <vehicle id="vehicle-6" type="passenger" color="Yellow" depart="0.06" route="trip-6"/>

   <route id="trip-7" color="Magenta" edges="4045164#5 115106778#0 115106778#2 115106778#3 26784170#0 26784170#3 667410641#0 154502579#0 667410645 667410646#0 667410646#1 27115018#0 198171539#0 1317567180 169465734#1 169465735#1 501456678 169453887#0 402179132 37873574 175589820 315921077#0 315921077#1 -315921078#3 -315921078#0 -219188460#7 -219188460#5 -219188460#4 -219188460#3 -219188460#1 -154755109#1 -154755109#0 -63566383 -288162959 -63530469 288162960#0 37873577 24035788#0"/>
   <vehicle id="vehicle-7" type="passenger" color="Yellow" depart="0.07" route="trip-7"/>

   <route id="trip-8" color="Magenta" edges="26784645 51081171#1 51081171#2 906649715 751168040#0 751168040#1 115106777#0 115106777#2 27404213#0 118041104#0 26704778#8 115106778#0 115106778#2 115106778#3 26784170#0 25150041#0 25150041#1 25150041#2 10212092#0 -20185105 24693845#0 24693834#0 24693834#1 51767045#0 51767045#1"/>
   <vehicle id="vehicle-8" type="passenger" color="Yellow" depart="0.08" route="trip-8"/>

   <route id="trip-9" color="Magenta" edges="-53265906#0 53265906#0 53265906#2 31694310 198147973#0 198147973#2 198147972 154755125#0 154755071 930736467 930736468 835792564 930736464 930736465 154755102#0 154755102#1 154755102#2 -8096211#2 150031207#8 23493261#0 28542995#0 303244432#0 303244432#1 734784830#0 109063043 23493260#0 23493260#4 23493260#5 1065802294 303244426 768603506 4400319 48587087 48587086#0 48587086#1 1075393377 100132117 30743982 44037603#0 44037603#1 32233474#0 32233474#3 142518656#1 38527899#0 30743981#0 117679358 303244429#0 -322860621#3 -322860621#0 -23691831#1 23691831#1 322860621#0 322860621#1"/>
   <vehicle id="vehicle-9" type="passenger" color="Yellow" depart="0.09" route="trip-9"/>

   <route id="trip-10" color="Magenta" edges="218930181 -218895699 -218930183#3 32020965 1305606232#2 150031232 32064260#0 32064260#5 32064261 541566703#0 28523803#0 541566701 144935692#0 144935692#1 144935692#2 166234884 166222937#0 389193083#1 150031230 542512892#0 542512892#1 98715988#0 98715988#2 98715988#5 129833341 154755117#0"/>
   <vehicle id="vehicle-10" type="passenger" color="Yellow" depart="0.1" route="trip-10"/>

   <route id="trip-11" color="Magenta" edges="37333602#0 37333602#4 383178036#0 383178036#1 383178034 150594021#0 150594021#3 4045164#0"/>
   <vehicle id="vehicle-11" type="passenger" color="Yellow" depart="0.11" route="trip-11"/>

   <route id="trip-12" color="Magenta" edges="35543180 36695920#2 142387043#1 142387043#2 1302644973#1 37791102#0 37791102#1 22949991 202650028#1 202650028#2 202650029#0 202650029#1 405531873#0 154755109#1 219188460#0 219188460#2 219188460#4 219188460#5 219188460#6 315921078#0 315921078#1 154755110#0 86415848 175589819#0 175589819#1 175589819#2 154333001#1 169453888#0 145345137#0 1065802292 667410647 1317567192#0 1317567192#1 150039007#1 667410644#0 9823971#0 9823971#1 9823971#2 9823971#3 857811041#0 51081171#0 51081171#1 51081171#2 906649715 751168040#0 751168040#1 115106777#0 115106777#2 4045160#0 4045160#2 4045160#3 42999417#0 42999417#3 42999417#6 32021100#0 32021100#1 32021100#3 218930183#0 218930181 218895701 4401680 150031240#0 150031240#1"/>
   <vehicle id="vehicle-12" type="passenger" color="Yellow" depart="0.12" route="trip-12"/>

   <route id="trip-13" color="Magenta" edges="751168040#0 751168040#1 115106777#0 115106777#2 4045160#0 4045160#2 4045160#3 37333602#0 37333602#4 383178036#0 383178036#1 8196627 154755084 35049297#0 8196681#0 8196681#2 8196681#3 8196681#4 41770576#1 41770576#2 41770576#3"/>
   <vehicle id="vehicle-13" type="passenger" color="Yellow" depart="0.13" route="trip-13"/>

   <route id="trip-14" color="Magenta" edges="23013529#0 -1010641521#1 -154511600#0 88235135#0 995953631 32007885#2 32008097#0 479545489#0 479545489#1 169455026 187070212#0 37873571#0 37873571#1 37873571#2 187070213#0 402179132 37873574 175589820 315921077#0 315921077#1 23015860#0 23015860#2 63589540 -23015859"/>
   <vehicle id="vehicle-14" type="passenger" color="Yellow" depart="0.14" route="trip-14"/>

   <route id="trip-15" color="Magenta" edges="-37866520 367049196#0 10318490#0 136413965#0 667410648 169453890#0 402179132 37873574 175589820 315921077#0 315921077#1 23487153#0 48826945#0 877575835 877575836 32029116#4 175588458#2 52303559#0 52303559#1 52303559#2"/>
   <vehicle id="vehicle-15" type="passenger" color="Yellow" depart="0.15" route="trip-15"/>

   <route id="trip-16" color="Magenta" edges="169453890#0 145345146#0 169453895 665030635#0 32902722#0 32902722#2 32902722#7 150039005#0 150039005#1 9872308#0 1317567192#0 22873498 94096720#1 210039165#1 210042207#1 22873524#0 22873524#1 22873524#2 8225140#3 8225140#4 8225138 85470309#4 51534029#0"/>
   <vehicle id="vehicle-16" type="passenger" color="Yellow" depart="0.16" route="trip-16"/>

   <route id="trip-17" color="Magenta" edges="-877603541#1 568235965#0 32903236#0 32903236#1 31951782#0 31951782#1 636113045 23014984 22949994#0 22949994#1 52303559#0 52303559#1 52303559#2 32029471 -39764938#1 154755110#0 86415848 175589819#0 175589819#1 175589819#2 154333001#1 169453888#0 145345137#0 1065802292 667410647 1317567192#0 1317567192#1 150039007#1 667410644#0 9823971#0 9823971#1 9823971#2 9823971#3 857811040 34896249#1 26784646 386265906#0 31694310 -26811074#3 -26811074#2 -26811074#1 -26811074#0 -154755095#2 -154755095#0"/>
   <vehicle id="vehicle-17" type="passenger" color="Yellow" depart="0.17" route="trip-17"/>

   <route id="trip-18" color="Magenta" edges="154755085#0 4400311#0 145033134#1 199239574#1 32108791#0 32108791#2 23493260#4 23493260#5 23795527#0 50061433 -83823403#2 -83823403#0 -83823409#1 23015533 22873524#0 22873524#1 22873524#2 8225140#3 8225140#4 8225140#5"/>
   <vehicle id="vehicle-18" type="passenger" color="Yellow" depart="0.18" route="trip-18"/>

   <route id="trip-19" color="Magenta" edges="23015778 23256227#3 -667410643#1 -667410643#0 -8225118#2 9823971#0 9823971#1 9823971#2 9823971#3 857811041#0 51081171#0 51081171#1 51081171#2 906649715 751168040#0 751168040#1 5667174#0 5667174#2 37347656 219018758#0 32011636#0 51857159 219098056 32064260#0 32064260#5 32064261 541566703#0 4394727#0 4394727#1 4394727#2 4394727#5 612185916#3"/>
   <vehicle id="vehicle-19" type="passenger" color="Yellow" depart="0.19" route="trip-19"/>

   <route id="trip-20" color="Magenta" edges="23799819#1 4400294 4400295 53212168 23800804#1 4400211#0 4400211#1 4400211#3 4400211#4 4400211#5 130997388#0 130997388#1 130659365 393422408#0 393422408#1 4400215#0 50628731#0 50628731#1 50628731#4 150031207#5 8096211#0 27598888#0 165515970#0 165515970#1 -145261460 -51718611#0"/>
   <vehicle id="vehicle-20" type="passenger" color="Yellow" depart="0.2" route="trip-20"/>

   <route id="trip-21" color="Magenta" edges="23013561#0 -26229488#1 22598769#6 22598769#9 22598769#10 37873570#0 37873570#1 48012544#0 48012544#2 48012544#3 877599645 203322740#0 -154511600#2 -154511600#0 88235135#0 995953631 32007885#2 32008097#0 479545489#0 479545489#1 169455026 187070212#0 37873571#0 37873571#1 37873571#2 187070213#0 402179132 37873574 175589820 315921077#0 315921077#1 154755110#0 86415848 175589819#0 175589819#1 175589819#2 154333001#1 169453888#0 145345137#0 1065802292 667410647 1317567192#0 1317567192#1 150039007#1 667410644#0 9823971#0 9823971#1 9823971#2 9823971#3 857811040 34896249#1 26784646 386265906#0 31694310 -26811074#3 -26811074#2 -26811074#1 -26811074#0 26811074#0 26811074#1 26811074#2 26811074#3"/>
   <vehicle id="vehicle-21" type="passenger" color="Yellow" depart="0.21" route="trip-21"/>

   <route id="trip-22" color="Magenta" edges="751168040#1 115106777#0 115106777#2 27404213#0 118041104#0 26704778#8 115106778#0 115106778#2 115106778#3 26784170#0 26784170#3 667410641#0 154502579#0 667410645 667410646#0 667410646#1 27115018#0 198171539#0 1317567180 169465734#1 169465735#1 501456678 169453887#0 402179132 37873574 175589820 315921077#0 315921077#1 -315921078#3 -315921078#0 -219188460#7 -219188460#5 -219188460#4 -219188460#3 -219188460#1 -154755109#1 -154755109#0 -63566383 36695921#0 36695921#1 36695921#3 36695920#2 142387043#1 142387043#2 1302644973#1 23487183#0 1300352454 216475699#1 216475699#2 216475699#3 500272217#0 500272215#0 500272213#0 9615451#0 453509785 37873758 364957117 494282521#0 485710967"/>
   <vehicle id="vehicle-22" type="passenger" color="Yellow" depart="0.22" route="trip-22"/>

   <route id="trip-23" color="Magenta" edges="948795440 165511531 8225109#0 8225109#3 23015531#0 23015531#3 69366483 85414282#1 23567938 109063043 23493260#0 23493260#4 23493260#5 1065802294 303244426 768603506 48587065#0 48587065#1 146789540#0 146789540#1 768602479 25071937 4400322#0 39606301 189054412 78419224#1 78419226#0 401880207"/>
   <vehicle id="vehicle-23" type="passenger" color="Yellow" depart="0.23" route="trip-23"/>

   <route id="trip-24" color="Magenta" edges="-85414282#0 69366483 85414282#1 23567938 109063043 23493260#0 23493260#4 23493260#5 1065802294 303244426 768603506 48587065#0 48587065#1 146789540#0 146789540#1 768602479 25071937 4400322#0 39606301 189054412 78419224#1 78419226#0 401880207 5667170#0 71900685#0 200763473 33444804#0"/>
   <vehicle id="vehicle-24" type="passenger" color="Yellow" depart="0.24" route="trip-24"/>

   <route id="trip-25" color="Magenta" edges="34998404#3 543531546#0 543524593 925248670#0 543524596#0 22598768#0 24664558 23393212#0 23393212#1 23393212#2 23393212#3 23393212#4 22598771#0 22598771#1"/>
   <vehicle id="vehicle-25" type="passenger" color="Yellow" depart="0.25" route="trip-25"/>

   <route id="trip-26" color="Magenta" edges="9872554#1 187070212#0 37873571#0 37873571#1 37873571#2 187070213#0 402179132 37873574 175589820 315921077#0 315921077#1 154755110#0 86415848 175589819#0 175589819#1 175589819#2 154333001#1 169453888#0 145345137#0 1065802292 667410647 1317567192#0 1317567192#1 150039007#1 667410644#0 9823971#0 9823971#1 9823971#2 9823971#3 857811041#0 51081171#0 51081171#1 51081171#2 906649715 751168040#0 751168040#1 5667174#0 5667174#2 37347656 219018758#0 32011636#0 51857159 219098056 -219098056 219098057#0 -219018761#1 219018761#0"/>
   <vehicle id="vehicle-26" type="passenger" color="Yellow" depart="0.26" route="trip-26"/>

   <route id="trip-27" color="Magenta" edges="-23479875#0 23479875#0 23479875#1 23479875#2 7974185#1 120070269 42250018 115851528#0 142518652#0 32111896#0 142518656#1 38527899#0 30743981#0 117679358 303244429#0 303244424 23568269#0 23568269#2 146789538#0 146789538#1 145035674 23568275#0 37276375 367049196#0 10318490#0 136413965#0 667410648 169453890#0 145345146#0 169453895 169453894 22949651 164158186 34998404#0 34998404#3 543531546#0 543524593 23013526"/>
   <vehicle id="vehicle-27" type="passenger" color="Yellow" depart="0.27" route="trip-27"/>

   <route id="trip-28" color="Magenta" edges="-154755082#3 980116966 -154755073#0 -1196295672#3 -1196295672#2 4941746#0 4401673#4 4401673#5 1272512390#0 1272512390#2 1272512390#3 612188894#0 1228473203#0 -144935692#1 -144935692#0 -541566701 -28523803#2 -541566703#2 -32064261 -32064260#8 -32064260#3 -219098056 219098057#0 -219018761#1 -219018762#2 -219018762#1 -32021100#6 -32021100#2 -32021100#0 -37390741#3 -37390741#2 8196618#0 8196618#1 917044797#1 917044797#2 917044796 150031197#0 150031197#1 150031197#2 150031197#3 150031197#4"/>
   <vehicle id="vehicle-28" type="passenger" color="Yellow" depart="0.28" route="trip-28"/>

   <route id="trip-29" color="Magenta" edges="23568275#0 37276375 367049196#0 10318490#0 136413965#0 667410648 145345141#0 1065802292 667410647 1317567192#0 1317567192#1 150039007#1 667410644#0 -1188278006#2 -8196629#8 -8196629#7 -8196629#6 -8196629#4 -8196629#3 -8196629#2 -8196629#0 8196616#0 8196616#2 -8196616#2"/>
   <vehicle id="vehicle-29" type="passenger" color="Yellow" depart="0.29" route="trip-29"/>

   <route id="trip-30" color="Magenta" edges="144935690 4394727#1 4390496 1228473203#0 144935692#2 167324659#0 55940134#0 186463490 930736467 930736468 835792564 930736464 930736465 154755102#0 154755102#1 154755102#2 -8096211#2 150031207#8 23493261#0 28542995#0 303244432#0 303244432#1 734784830#0 109063043 23493260#0 23493260#4 23493260#5 1065802294 303244426 768603507 37276375 367049196#0 10318490#0 203971501#0 727302499 1135417454#0 1135417454#2 -121935993#6 -121935993#5 -121935993#4 -121935993#3 -121935993#0 121935993#0 121935993#3 121935993#4"/>
   <vehicle id="vehicle-30" type="passenger" color="Yellow" depart="0.3" route="trip-30"/>

   <route id="trip-31" color="Magenta" edges="121935993#3 121935993#4 88679040 203971499#0 136413965#0 667410648 169453890#0 402179132 37873574 175589820 315921077#0 315921077#1 23487153#0 48826945#0 32213071#0 540101366 -32007885#4 -32007885#1 -88235135#1 154511600#0 154511600#1 -203322740#2 877599646 1070283593 23393212#0 23393212#1 23393212#2 23393212#3 23393212#4 23393212#5"/>
   <vehicle id="vehicle-31" type="passenger" color="Yellow" depart="0.31" route="trip-31"/>

   <route id="trip-32" color="Magenta" edges="158942306#1 23013041#1 23013041#2 543531547#0 398530204 37276376#0 34998403#0 34998403#4 130734295#0 25676944#2 -8196681#7 -8196681#6 -8196681#5 -8196681#4 -8196681#3 -43086693#1 -43086693#0 24449422 150031197#4 150031197#6 150031197#8 8196620#0 8196620#1 37390741#0 37390741#3 32021100#0 32021100#1 32021100#3"/>
   <vehicle id="vehicle-32" type="passenger" color="Yellow" depart="0.32" route="trip-32"/>

   <route id="trip-33" color="Magenta" edges="32021100#3 32020965 219018762#2 219018761#0 206080341#0 206080341#3 -37347656 27404213#0 118041104#0 26704778#8 115106778#0 115106778#2 115106778#3 26784170#0 26784170#3 667410641#0 154502579#0 667410645 667410646#0 667410646#1 27115018#0 198171539#0 1317567180 169465734#1 169465735#1 501456678 169453887#0 402179132 37873574 175589820 315921077#0 315921077#1 23487153#0 48826945#0 32213071#0 540101366 -32007885#4 -32007885#1 -88235135#1 154511600#0 154511600#1 -203322740#2"/>
   <vehicle id="vehicle-33" type="passenger" color="Yellow" depart="0.33" route="trip-33"/>

   <route id="trip-34" color="Magenta" edges="8096211#0 -8096211#2 150031207#8 23493261#0 28542995#0 303244432#0 303244432#1 734784830#0 109063043 23493260#0 23493260#4 23493260#5 1065802294 303244426 768603506 4400319 48587087 48587086#0 48587086#1 1075393377 100132117 30743982 44037603#0 44037603#1 32233474#0 32233474#3 142518656#1 23914009#2 23914009#3 4537892#0 4537892#1 4537892#2 37276374#0 37276374#1 37276374#2 44129592"/>
   <vehicle id="vehicle-34" type="passenger" color="Yellow" depart="0.34" route="trip-34"/>

   <route id="trip-35" color="Magenta" edges="206080341#0 206080341#3 -37347656 27404213#0 118041104#0 26704778#8 115106778#0 115106778#2 115106778#3 26784170#0 26784170#3 667410641#0 154502579#0 667410645 667410646#0 667410646#1 27115018#0 198171539#0 1317567180 169465734#1 169465735#1 501456678 169453887#0 402179132 37873574 175589820 315921077#0 315921077#1 23487153#0 48826945#0 32213071#0 540101366 -32007885#4 -32007885#1 -88235135#1 154511600#0 154511600#1 -203322740#2 877599646 1070283593 23393212#0 23393212#1 23393212#2 23393212#3 23013269#0 23013269#1 426397833 22598769#10"/>
   <vehicle id="vehicle-35" type="passenger" color="Yellow" depart="0.35" route="trip-35"/>

   <route id="trip-36" color="Magenta" edges="26811376#0 -154755095#0 -51113317 198147972 154755125#0 154755071 930736467 930736468 835792564 930736464 930736465 154755102#0 154755102#1 154755102#2 -8096211#2 150031207#8 23493261#0 28542995#0 303244432#0 303244432#1 734784830#0 109063043 23493260#0 23493260#4 23493260#5 1065802294 303244426 768603507 37276375 367049196#0 10318490#0 203971501#0 727302499 1135417454#0 1135417454#2 -121935993#6 -121935993#5 88679040"/>
   <vehicle id="vehicle-36" type="passenger" color="Yellow" depart="0.36" route="trip-36"/>

   <route id="trip-37" color="Magenta" edges="23493040 64488045 917044790 542512895 23493176#0 53212166#0 53212166#1 53212166#5 28542995#0 303244432#0 303244432#1 734784830#0 109063043 23493260#0 23493260#4 23493260#5 23795527#0 50061433 -22873531#1 22873505#0 22873505#1"/>
   <vehicle id="vehicle-37" type="passenger" color="Yellow" depart="0.37" route="trip-37"/>

   <route id="trip-38" color="Magenta" edges="35543180 36695920#2 142387043#1 142387043#2 1302644973#1 23487183#0 1300352454 216475699#1 216475699#2 216475699#3 500272217#0 500272215#0 500272213#0 9615451#0 453509785 37873758 364957117 23013528#0 48012544#0 48012544#2 48012544#3 480375808 1070283593 23393212#0 23393212#1 23393212#2 23393212#3 23393212#4 23393212#5 37873569#0 23393211 26229488#0 -23013561#1 23013561#0"/>
   <vehicle id="vehicle-38" type="passenger" color="Yellow" depart="0.38" route="trip-38"/>

   <route id="trip-39" color="Magenta" edges="154755102#2 26519352#0 26519352#3 8096212#0 948795440 165511531 -165511531 -954759852 8142293#0 8142293#2 8142293#3 8142293#4 8142293#5 8142293#6 9823971#1 9823971#2 9823971#3 857811041#0 51081171#0 51081171#1 51081171#2 906649715 751168040#0 751168040#1 115106777#0 115106777#2 4045160#0 4045160#2 4045160#3 42999417#0 42999417#3 42999417#6 28841605#0 32635135#0"/>
   <vehicle id="vehicle-39" type="passenger" color="Yellow" depart="0.39" route="trip-39"/>

   <route id="trip-40" color="Magenta" edges="37873758 364957117 23013528#0 48012544#0 48012544#2 48012544#3 480375808 1070283593 23393212#0 23393212#1 23393212#2 23393212#3 23393212#4 22598771#0 22598771#1 51827455#3 22598780#0 22598780#1 158942306#0 158942306#1 34999320#0 34999320#1"/>
   <vehicle id="vehicle-40" type="passenger" color="Yellow" depart="0.4" route="trip-40"/>

   <route id="trip-41" color="Magenta" edges="154502577 150039005#0 150039005#1 9872308#0 1317567192#0 1317567192#1 150039007#1 667410644#0 -1188278006#2 -8196629#8 -8196629#7 -8196629#6 -8196629#4 -8196629#3 -8196629#2 -8196629#0 8196616#0 8196616#2 667410673#0 35049297#0 -173282740 150031197#6 150031197#8 917044797#0 917044797#1 917044797#2 917044796 150031197#0 150031197#1 1302279722 23798319#0 -298326251 37331985#5 43086695 43086693#0 43086693#1"/>
   <vehicle id="vehicle-41" type="passenger" color="Yellow" depart="0.41" route="trip-41"/>

   <route id="trip-42" color="Magenta" edges="203971501#0 727302499 1135417454#0 1135417454#2 -121935993#6 -121935993#5 88679040 203971499#0 136413965#0 667410648 169453890#0 402179132 37873574 175589820 315921077#0 315921077#1 23487153#0 48826945#0 32213071#0 540101366 31951737#0 31951737#2 32902927 179639808#0 179639808#1"/>
   <vehicle id="vehicle-42" type="passenger" color="Yellow" depart="0.42" route="trip-42"/>

   <route id="trip-43" color="Magenta" edges="250959563 115849681#0 250959560 47892504#0 63530469 288162959 63566383 202654192#0 154755109#1 219188460#0 219188460#2 219188460#4 219188460#5 219188460#6 315921078#0 315921078#1 154755110#0 86415848 175589819#0 175589819#1 175589819#2 154333001#1 169453888#0 145345137#0 1065802292 667410647 1317567192#0 22873498 94096720#1 210039165#1 210042207#1 22873524#0 22873524#1 22873524#2 8225140#3 8225140#4 8225138 8225110#0 -79689707 79689707"/>
   <vehicle id="vehicle-43" type="passenger" color="Yellow" depart="0.43" route="trip-43"/>

   <route id="trip-44" color="Magenta" edges="34998403#4 130734295#0 25676944#2 8196681#8 4534418 206006203#0 202849696#0 202849696#2 34998402#0 543524588#0 543524590#0 543524593 925248670#0 543524596#0 543524596#2 1208627302 34998405 37873571#0 37873571#1 37873571#2 187070213#0 402179132 37873574 175589820 315921077#0 315921077#1 154755110#0 86415860#0 86415860#1"/>
   <vehicle id="vehicle-44" type="passenger" color="Yellow" depart="0.44" route="trip-44"/>

   <route id="trip-45" color="Magenta" edges="26241617 -29206900 29207110 36564599 4400302 33469672 33444801 370457083 33444803#0 333438196 39606300 33302833 147144448 23568396#2 10318490#0 136413965#0 667410648 145345141#0 1065802292 667410647 1317567192#0 22873498 94096720#1 23686955 -22873540#5"/>
   <vehicle id="vehicle-45" type="passenger" color="Yellow" depart="0.45" route="trip-45"/>

   <route id="trip-46" color="Magenta" edges="43086693#0 43086693#1 8196681#3 8196681#4 8196681#5 8196681#6 8196681#7 8196681#8 4534418 206006203#0 202849696#0 202849696#2 34998402#0 543524588#0 543524590#0 543524593 925248670#0 543524596#0 543524596#2 1208627302 34998405 37873571#0 37873571#1 37873571#2 187070213#0 4400324#0 169453889#0-AddedOnRampEdge 169453889#0 203971501#0 727302499 1135417454#0 1135417454#2 4400318 48591635#0 23568429"/>
   <vehicle id="vehicle-46" type="passenger" color="Yellow" depart="0.46" route="trip-46"/>

   <route id="trip-47" color="Magenta" edges="-154755082#3 980116966 -154755073#0 -1196295672#3 -1196295672#2 4941746#0 4401673#4 4401673#5 1272512390#0 1272512390#2 1272512390#3 1179783835#0 166222937#0 389193083#1 150031230 542512892#0 542512892#1 150031207#0 150031207#3 150031207#5 8096211#0 26519352#0 26519352#3 8096212#0 948795440 165511531 8225109#0 8225109#3 23015531#0"/>
   <vehicle id="vehicle-47" type="passenger" color="Yellow" depart="0.47" route="trip-47"/>

   <route id="trip-48" color="Magenta" edges="-27431138#2 -27431138#1 150031225#0 150031225#1 4121461#0 4121461#1 4121461#2 692825565#1 -32635135#3 -457420988 4045161#0 4045161#1 383178036#0 383178036#1 383178034 150594021#0 150594021#3 4045164#0 4045164#5 115106778#0 115106778#2 115106778#3 26784170#0 26784170#3 667410641#0 154502579#0 667410645 667410646#0 667410646#1 27115018#0 198171539#0 1317567180 169465734#1 169465735#1 501456678 169453887#0 402179132 37873574 175589820 315921077#0 315921077#1 -315921078#3 -315921078#0 -219188460#7 -219188460#5 -219188460#4 -219188460#3 -219188460#1 -154755109#1 -154755109#0 -63566383 36695921#0 36695921#1 36695921#3 36695920#2 142387043#1 142387043#2 1302644973#1 23487183#0 1300352454 216475699#1 216475699#2 216475699#3 500272217#0 500272215#0 500272213#0 9615451#0 453509785 37873758 364957117 494282521#0 485710967 154507079#0 23014990"/>
   <vehicle id="vehicle-48" type="passenger" color="Yellow" depart="0.48" route="trip-48"/>

   <route id="trip-49" color="Magenta" edges="150031260#1 667410675 667410674#0 -8196616#2 -8196616#0 667410671#0 -8196629#0 38574426#0 38574426#2 38574426#3 667410676#0 198358797#0 198358797#4 198358797#5 857814916#0 4391134 386265906#0 37331980#0 37331980#5 219098055#0 1300315688#0 186463493#0 150031203#0 186463491#0 1208340033 1208340031#0 1208340031#1"/>
   <vehicle id="vehicle-49" type="passenger" color="Yellow" depart="0.49" route="trip-49"/>

   <route id="trip-50" color="Magenta" edges="-37390741#2 37390741#0 37390741#3 4045161#0 4045161#1 383178036#0 383178036#1 383178034 150594021#0 150594021#3 4045164#0 4045164#5 115106778#0 115106778#2 115106778#3 26784170#0 26784170#3 667410641#0 154502579#0 667410645 667410646#0 667410646#1 27115018#0 198171539#0 1317567180 169465734#1 169465735#1 501456678 169453887#0 402179132 37873574 175589820 315921077#0 315921077#1 -315921078#3 -315921078#0 -219188460#7 -219188460#5 -219188460#4 -219188460#3 -219188460#1 -154755109#1 -154755109#0 -63566383 -288162959 23487084"/>
   <vehicle id="vehicle-50" type="passenger" color="Yellow" depart="0.5" route="trip-50"/>

   <route id="trip-51" color="Magenta" edges="-32902722#3 -32902722#1 32902722#0 32902722#2 32902722#7 150039005#0 150039005#1 9872308#0 1317567192#0 1317567192#1 150039007#1 667410644#0 9823971#0 9823971#1 9823971#2 9823971#3 857811041#0 51081171#0 51081171#1 51081171#2 906649715 751168040#0 751168040#1 115106777#0 115106777#2 4045160#0 4045160#2 4045160#3 42999417#0 42999417#3 42999417#6 32021100#0 32021100#1 32021100#3 -32021100#6 -32021100#2"/>
   <vehicle id="vehicle-51" type="passenger" color="Yellow" depart="0.51" route="trip-51"/>

   <route id="trip-52" color="Magenta" edges="896349525 -896349525 48012544#2 48012544#3 877599645 203322740#0 -154511600#2 -154511600#0 88235135#0 995953631 32007885#2 32008097#0 479545489#0 479545489#1 169455026 187070212#0 37873571#0 37873571#1 37873571#2 187070213#0 402179132 37873574 175589820 315921077#0 315921077#1 154755110#0 86415848 175589819#0 175589819#1 175589819#2 154333001#1 169453888#0 145345137#0 1065802292 667410647 1317567192#0 1317567192#1 150039007#1 667410644#0 -1188278006#2 -8196629#8 -8196629#7 -8196629#6 -8196629#4"/>
   <vehicle id="vehicle-52" type="passenger" color="Yellow" depart="0.52" route="trip-52"/>

   <route id="trip-53" color="Magenta" edges="8196629#2 8196629#3 8196629#4 8196629#5 8196629#7 8196629#8 1188278006#0 154502579#0 667410645 667410646#0 667410646#1 27115018#0 198171539#0 1317567180 169465734#1 169465735#1 501456678 169453887#0 402179132 37873574 175589820 315921077#0 315921077#1 -315921078#3 -315921078#0 -219188460#7 -219188460#5 -219188460#4 -219188460#3 -219188460#1 -154755109#1 -154755109#0 -63566383 -288162959 -63530469 288162960#0 37873577 288162964#0 1065800353 24040357 24037710 7974185#1 120070269 42250018"/>
   <vehicle id="vehicle-53" type="passenger" color="Yellow" depart="0.53" route="trip-53"/>

   <route id="trip-54" color="Magenta" edges="22598769#4 22598769#6 22598769#9 22598769#10 37873570#0 37873570#1 48012544#0 48012544#2 48012544#3 877599645 203322740#0 -154511600#2 -154511600#0 88235135#0 995953631 32007885#2 32008097#0 479545489#0 479545489#1 169455026 187070212#0 37873571#0 37873571#1 37873571#2 187070213#0 402179132 37873574 175589820 315921077#0 315921077#1 154755110#0 86415848 175589819#0 175589819#1 175589819#2 154333001#1 169453888#0 145345137#0 1065802292 667410647 1317567192#0 1317567192#1 150039007#1 667410644#0 9823971#0 9823971#1 9823971#2 9823971#3 857811040 34896249#1 26784646 386265906#0 31694310 -26811074#3 -26811074#2 -26811074#1 -26811074#0 154755094#0 51534019#0 8225127 8225128#0 8225128#1"/>
   <vehicle id="vehicle-54" type="passenger" color="Yellow" depart="0.54" route="trip-54"/>
